<additional>    
    <inductionLoop id="straightIn" lane="St_1_0" pos="0" length="5" file="result.out.xml"/>
    <inductionLoop id="straightOut" lane="St_1_0" pos="-5" length="5" file="result.out.xml"/>

    <inductionLoop id="regulationIn" lane="Regu_1_0" pos="0" length="5" file="result.out.xml"/>
    <inductionLoop id="regulationOut" lane="Regu_1_0" pos="-5" length="5" file="result.out.xml"/>

    <laneAreaDetector id="SI" lanes="W_1_0 W_2_0 St_in_0" friendlyPos="false" file="result.out.xml"/>
    <!-- <laneAreaDetector id="SI_2" lanes=":N_J_1_1_1 N_2_1" friendlyPos="false" file="result.out.xml"/> -->
    <laneAreaDetector id="SO" lanes="St_out_0 -W_2_0 -W_1_0" friendlyPos="false" file="result.out.xml"/>
    <!-- <laneAreaDetector id="SO_2" lanes=":S_J_1_0_1 S_2_1 S_3_1" friendlyPos="false" file="result.out.xml"/> -->
    <laneAreaDetector id="CS" lane="St_1_0" friendlyPos="false" file="result.out.xml"/>

    <laneAreaDetector id="RI" lanes="E_in_0 E_1_0 Regu_in_0" friendlyPos="false" file="result.out.xml"/>
    <laneAreaDetector id="RO" lanes="Regu_out_0 -E_1_0 E_out_0" friendlyPos="false" file="result.out.xml"/>
    <laneAreaDetector id="CR" lane="Regu_1_0" friendlyPos="false" file="result.out.xml"/>

    <!-- <laneAreaDetector id="BI" lanes="Branch_in_0" friendlyPos="false" file="result.out.xml"/>
    <laneAreaDetector id="BO" lanes="Branch_out_0" friendlyPos="false" file="result.out.xml"/> -->
    
</additional>
