<?xml version="1.0" encoding="UTF-8"?>

<!-- generated on 2023-09-14 14:59:57 by Eclipse SUMO netedit Version 1.17.0
<configuration xmlns:xsi="http://www.w3.org/2001/XMLSchema-instance" xsi:noNamespaceSchemaLocation="http://sumo.dlr.de/xsd/netconvertConfiguration.xsd">

    <input>
        <sumo-net-file value="/home/traffic/trafficsimulator/sumoSimulator/kamirenjaku_cross/scenario_1/Tjiro.net.xml"/>
    </input>

    <output>
        <output-file value="/home/traffic/trafficsimulator/sumoSimulator/kamirenjaku_cross/scenario_1/Tjiro.net.xml"/>
    </output>

    <processing>
        <geometry.min-radius.fix.railways value="false"/>
        <geometry.max-grade.fix value="false"/>
        <offset.disable-normalization value="true"/>
        <lefthand value="1"/>
    </processing>

    <junctions>
        <no-turnarounds value="true"/>
        <junctions.corner-detail value="5"/>
        <junctions.limit-turn-speed value="5.50"/>
        <rectangular-lane-cut value="0"/>
    </junctions>

    <pedestrian>
        <walkingareas value="0"/>
    </pedestrian>

</configuration>
-->

<net version="1.16" junctionCornerDetail="5" lefthand="true" limitTurnSpeed="5.50" xmlns:xsi="http://www.w3.org/2001/XMLSchema-instance" xsi:noNamespaceSchemaLocation="http://sumo.dlr.de/xsd/net_file.xsd">

    <location netOffset="0.00,0.00" convBoundary="-85.00,84.20,115.00,177.00" origBoundary="-10000000000.00,-10000000000.00,10000000000.00,10000000000.00" projParameter="!"/>

    <edge id=":E_J_1_0" function="internal">
        <lane id=":E_J_1_0_0" index="0" speed="13.89" length="0.10" shape="55.00,82.60 55.00,82.60"/>
    </edge>
    <edge id=":E_J_1_1" function="internal">
        <lane id=":E_J_1_1_0" index="0" speed="13.89" length="0.10" shape="55.00,85.80 55.00,85.80"/>
    </edge>
    <edge id=":N_J_1_0" function="internal">
        <lane id=":N_J_1_0_0" index="0" speed="13.89" length="0.10" shape="13.40,124.00 13.40,124.00"/>
    </edge>
    <edge id=":N_J_1_1" function="internal">
        <lane id=":N_J_1_1_0" index="0" speed="13.89" length="0.10" shape="16.60,124.00 16.60,124.00"/>
    </edge>
    <edge id=":Top_0" function="internal">
        <lane id=":Top_0_0" index="0" speed="13.89" length="14.40" shape="22.20,82.60 7.80,82.60"/>
    </edge>
    <edge id=":Top_1" function="internal">
        <lane id=":Top_1_0" index="0" speed="8.00" length="4.07" shape="22.20,82.60 18.35,83.15 18.20,83.24"/>
    </edge>
    <edge id=":Top_6" function="internal">
        <lane id=":Top_6_0" index="0" speed="8.00" length="10.13" shape="18.20,83.24 15.60,84.80 13.95,87.55 13.40,91.40"/>
    </edge>
    <edge id=":Top_2" function="internal">
        <lane id=":Top_2_0" index="0" speed="6.51" length="9.03" shape="16.60,91.40 16.95,88.95 18.00,87.20 19.75,86.15 22.20,85.80"/>
    </edge>
    <edge id=":Top_3" function="internal">
        <lane id=":Top_3_0" index="0" speed="8.00" length="14.19" shape="16.60,91.40 16.05,87.55 14.40,84.80 11.65,83.15 7.80,82.60"/>
    </edge>
    <edge id=":Top_4" function="internal">
        <lane id=":Top_4_0" index="0" speed="6.51" length="9.03" shape="7.80,85.80 10.25,86.15 12.00,87.20 13.05,88.95 13.40,91.40"/>
    </edge>
    <edge id=":Top_5" function="internal">
        <lane id=":Top_5_0" index="0" speed="13.89" length="14.40" shape="7.80,85.80 22.20,85.80"/>
    </edge>
    <edge id=":W_J_1_0" function="internal">
        <lane id=":W_J_1_0_0" index="0" speed="13.89" length="0.10" shape="-25.00,82.60 -25.00,82.60"/>
    </edge>
    <edge id=":W_J_1_1" function="internal">
        <lane id=":W_J_1_1_0" index="0" speed="13.89" length="0.10" shape="-25.00,85.80 -25.00,85.80"/>
    </edge>

    <edge id="-E_1" from="E_J_1" to="E_0" priority="-1">
        <lane id="-E_1_0" index="0" speed="13.89" length="60.00" shape="55.00,85.80 115.00,85.80"/>
    </edge>
    <edge id="-E_2" from="Top" to="E_J_1" priority="-1">
        <lane id="-E_2_0" index="0" speed="13.89" length="32.80" shape="22.20,85.80 55.00,85.80"/>
    </edge>
    <edge id="-N_1" from="N_J_1" to="N_0" priority="-1">
        <lane id="-N_1_0" index="0" speed="13.89" length="53.00" shape="13.40,124.00 13.40,177.00"/>
    </edge>
    <edge id="-N_2" from="Top" to="N_J_1" priority="-1">
        <lane id="-N_2_0" index="0" speed="13.89" length="32.60" shape="13.40,91.40 13.40,124.00"/>
    </edge>
    <edge id="-W_1" from="W_J_1" to="W_0" priority="-1">
        <lane id="-W_1_0" index="0" speed="13.89" length="60.00" shape="-25.00,82.60 -85.00,82.60"/>
    </edge>
    <edge id="-W_2" from="Top" to="W_J_1" priority="-1">
        <lane id="-W_2_0" index="0" speed="13.89" length="32.80" shape="7.80,82.60 -25.00,82.60"/>
    </edge>
    <edge id="E_1" from="E_0" to="E_J_1" priority="-1">
        <lane id="E_1_0" index="0" speed="13.89" length="60.00" shape="115.00,82.60 55.00,82.60"/>
    </edge>
    <edge id="E_2" from="E_J_1" to="Top" priority="-1">
        <lane id="E_2_0" index="0" speed="13.89" length="32.80" shape="55.00,82.60 22.20,82.60"/>
    </edge>
    <edge id="N_1" from="N_0" to="N_J_1" priority="-1">
        <lane id="N_1_0" index="0" speed="13.89" length="53.00" shape="16.60,177.00 16.60,124.00"/>
    </edge>
    <edge id="N_2" from="N_J_1" to="Top" priority="-1">
        <lane id="N_2_0" index="0" speed="13.89" length="32.60" shape="16.60,124.00 16.60,91.40"/>
    </edge>
    <edge id="W_1" from="W_0" to="W_J_1" priority="-1">
        <lane id="W_1_0" index="0" speed="13.89" length="60.00" shape="-85.00,85.80 -25.00,85.80"/>
    </edge>
    <edge id="W_2" from="W_J_1" to="Top" priority="-1">
        <lane id="W_2_0" index="0" speed="13.89" length="32.80" shape="-25.00,85.80 7.80,85.80"/>
    </edge>

    <tlLogic id="J2" type="static" programID="0" offset="0">
        <phase duration="42" state="GgrrGG"/>
        <phase duration="3"  state="yyrryy"/>
        <phase duration="42" state="rrGGGr"/>
        <phase duration="3"  state="rryyyr"/>
    </tlLogic>

    <junction id="E_0" type="dead_end" x="115.00" y="84.20" incLanes="-E_1_0" intLanes="" shape="115.00,84.20 115.00,87.40 115.00,84.20"/>
    <junction id="E_J_1" type="priority" x="55.00" y="84.20" incLanes="E_1_0 -E_2_0" intLanes=":E_J_1_0_0 :E_J_1_1_0" shape="55.00,81.00 55.00,87.40 55.00,81.00">
        <request index="0" response="00" foes="00" cont="0"/>
        <request index="1" response="00" foes="00" cont="0"/>
    </junction>
    <junction id="N_0" type="dead_end" x="15.00" y="177.00" incLanes="-N_1_0" intLanes="" shape="15.00,177.00 11.80,177.00 15.00,177.00"/>
    <junction id="N_J_1" type="priority" x="15.00" y="124.00" incLanes="-N_2_0 N_1_0" intLanes=":N_J_1_0_0 :N_J_1_1_0" shape="11.80,124.00 18.20,124.00 11.80,124.00">
        <request index="0" response="00" foes="00" cont="0"/>
        <request index="1" response="00" foes="00" cont="0"/>
    </junction>
    <junction id="Top" type="traffic_light" x="15.00" y="84.20" incLanes="E_2_0 N_2_0 W_2_0" intLanes=":Top_0_0 :Top_6_0 :Top_2_0 :Top_3_0 :Top_4_0 :Top_5_0" shape="22.20,81.00 22.20,87.40 19.98,87.84 19.20,88.40 18.64,89.18 18.31,90.18 18.20,91.40 11.80,91.40 11.36,89.18 10.80,88.40 10.02,87.84 9.02,87.51 7.80,87.40 7.80,81.00">
        <request index="0" response="000000" foes="001000" cont="0"/>
        <request index="1" response="110000" foes="111000" cont="1"/>
        <request index="2" response="100000" foes="100000" cont="0"/>
        <request index="3" response="100011" foes="100011" cont="0"/>
        <request index="4" response="000000" foes="000010" cont="0"/>
        <request index="5" response="000000" foes="001110" cont="0"/>
    </junction>
    <junction id="W_0" type="dead_end" x="-85.00" y="84.20" incLanes="-W_1_0" intLanes="" shape="-85.00,84.20 -85.00,81.00 -85.00,84.20"/>
    <junction id="W_J_1" type="priority" x="-25.00" y="84.20" incLanes="-W_2_0 W_1_0" intLanes=":W_J_1_0_0 :W_J_1_1_0" shape="-25.00,81.00 -25.00,87.40 -25.00,81.00">
        <request index="0" response="00" foes="00" cont="0"/>
        <request index="1" response="00" foes="00" cont="0"/>
    </junction>

    <junction id=":Top_6_0" type="internal" x="18.20" y="83.24" incLanes=":Top_1_0 W_2_0" intLanes=":Top_3_0 :Top_4_0 :Top_5_0"/>

    <connection from="-E_2" to="-E_1" fromLane="0" toLane="0" via=":E_J_1_1_0" dir="s" state="M"/>
    <connection from="-N_2" to="-N_1" fromLane="0" toLane="0" via=":N_J_1_0_0" dir="s" state="M"/>
    <connection from="-W_2" to="-W_1" fromLane="0" toLane="0" via=":W_J_1_0_0" dir="s" state="M"/>
    <connection from="E_1" to="E_2" fromLane="0" toLane="0" via=":E_J_1_0_0" dir="s" state="M"/>
    <connection from="E_2" to="-W_2" fromLane="0" toLane="0" via=":Top_0_0" tl="J2" linkIndex="0" dir="s" state="O"/>
    <connection from="E_2" to="-N_2" fromLane="0" toLane="0" via=":Top_1_0" tl="J2" linkIndex="1" dir="r" state="o"/>
    <connection from="N_1" to="N_2" fromLane="0" toLane="0" via=":N_J_1_1_0" dir="s" state="M"/>
    <connection from="N_2" to="-E_2" fromLane="0" toLane="0" via=":Top_2_0" tl="J2" linkIndex="2" dir="l" state="o"/>
    <connection from="N_2" to="-W_2" fromLane="0" toLane="0" via=":Top_3_0" tl="J2" linkIndex="3" dir="r" state="o"/>
    <connection from="W_1" to="W_2" fromLane="0" toLane="0" via=":W_J_1_1_0" dir="s" state="M"/>
    <connection from="W_2" to="-N_2" fromLane="0" toLane="0" via=":Top_4_0" tl="J2" linkIndex="4" dir="l" state="O"/>
    <connection from="W_2" to="-E_2" fromLane="0" toLane="0" via=":Top_5_0" tl="J2" linkIndex="5" dir="s" state="O"/>

    <connection from=":E_J_1_0" to="E_2" fromLane="0" toLane="0" dir="s" state="M"/>
    <connection from=":E_J_1_1" to="-E_1" fromLane="0" toLane="0" dir="s" state="M"/>
    <connection from=":N_J_1_0" to="-N_1" fromLane="0" toLane="0" dir="s" state="M"/>
    <connection from=":N_J_1_1" to="N_2" fromLane="0" toLane="0" dir="s" state="M"/>
    <connection from=":Top_0" to="-W_2" fromLane="0" toLane="0" dir="s" state="M"/>
    <connection from=":Top_1" to="-N_2" fromLane="0" toLane="0" via=":Top_6_0" dir="r" state="m"/>
    <connection from=":Top_6" to="-N_2" fromLane="0" toLane="0" dir="r" state="M"/>
    <connection from=":Top_2" to="-E_2" fromLane="0" toLane="0" dir="l" state="M"/>
    <connection from=":Top_3" to="-W_2" fromLane="0" toLane="0" dir="r" state="M"/>
    <connection from=":Top_4" to="-N_2" fromLane="0" toLane="0" dir="l" state="M"/>
    <connection from=":Top_5" to="-E_2" fromLane="0" toLane="0" dir="s" state="M"/>
    <connection from=":W_J_1_0" to="-W_1" fromLane="0" toLane="0" dir="s" state="M"/>
    <connection from=":W_J_1_1" to="W_2" fromLane="0" toLane="0" dir="s" state="M"/>

</net>
