<?xml version="1.0" encoding="UTF-8"?>

<!-- generated on 2024-03-10 23:44:45 by Eclipse SUMO netedit Version 1.17.0
<configuration xmlns:xsi="http://www.w3.org/2001/XMLSchema-instance" xsi:noNamespaceSchemaLocation="http://sumo.dlr.de/xsd/netconvertConfiguration.xsd">

    <input>
        <sumo-net-file value="/home/traffic/SUMO_SCENARIO/tokyo-tower/settings/const_60.net.xml"/>
    </input>

    <output>
        <output-file value="/home/traffic/SUMO_SCENARIO/tokyo-tower/settings/const_60.net.xml"/>
    </output>

    <processing>
        <geometry.min-radius.fix.railways value="false"/>
        <geometry.max-grade.fix value="false"/>
        <offset.disable-normalization value="true"/>
        <lefthand value="1"/>
    </processing>

    <junctions>
        <no-turnarounds value="true"/>
        <junctions.corner-detail value="5"/>
        <junctions.limit-turn-speed value="5.50"/>
        <rectangular-lane-cut value="0"/>
    </junctions>

    <pedestrian>
        <walkingareas value="0"/>
    </pedestrian>

</configuration>
-->

<net version="1.16" junctionCornerDetail="5" lefthand="true" limitTurnSpeed="5.50" xmlns:xsi="http://www.w3.org/2001/XMLSchema-instance" xsi:noNamespaceSchemaLocation="http://sumo.dlr.de/xsd/net_file.xsd">

    <location netOffset="0.00,0.00" convBoundary="-118.25,-188.64,50.21,135.72" origBoundary="-10000000000.00,-10000000000.00,10000000000.00,10000000000.00" projParameter="!"/>

    <edge id=":J4_0" function="internal">
        <lane id=":J4_0_0" index="0" speed="11.16" length="24.40" shape="14.82,-113.85,24.66 12.66,-104.46,25.20 10.36,-97.75,25.60 7.91,-93.72,25.87 5.33,-92.37,26.03"/>
    </edge>
    <edge id=":J4_1" function="internal">
        <lane id=":J4_1_0" index="0" speed="13.89" length="30.33" shape="14.82,-113.85,24.66 14.36,-107.75,24.93 14.26,-98.74,25.31 14.32,-89.72,25.70 14.32,-83.57,25.97"/>
    </edge>
    <edge id=":J4_2" function="internal">
        <lane id=":J4_2_0" index="0" speed="13.89" length="29.77" shape="17.52,-83.48,25.97 17.52,-89.55,25.70 17.47,-98.38,25.32 17.58,-107.20,24.94 18.06,-113.21,24.68"/>
    </edge>
    <edge id=":J4_3" function="internal">
        <lane id=":J4_3_0" index="0" speed="8.66" length="3.85" shape="17.52,-83.48,25.97 16.87,-87.27,25.98"/>
    </edge>
    <edge id=":J4_6" function="internal">
        <lane id=":J4_6_0" index="0" speed="8.66" length="13.33" shape="16.87,-87.27,25.98 16.85,-87.38,25.98 14.59,-90.16,25.99 10.75,-91.83,26.01 5.33,-92.37,26.03"/>
    </edge>
    <edge id=":J4_4" function="internal">
        <lane id=":J4_4_0" index="0" speed="7.31" length="11.96" shape="5.33,-89.17,26.05 9.32,-88.84,26.02 12.15,-87.79,26.00 13.82,-86.03,25.98 14.32,-83.57,25.97"/>
    </edge>
    <edge id=":J4_5" function="internal">
        <lane id=":J4_5_0" index="0" speed="12.10" length="28.63" shape="5.33,-89.17,26.05 9.11,-90.69,25.86 12.49,-95.20,25.58 15.47,-102.70,25.20 18.06,-113.21,24.68"/>
    </edge>
    <edge id=":RS_0" function="internal">
        <lane id=":RS_0_0" index="0" speed="13.89" length="0.10" shape="13.40,-48.04,25.80 13.42,-48.00,25.80"/>
    </edge>
    <edge id=":RS_1" function="internal">
        <lane id=":RS_1_0" index="0" speed="13.89" length="0.10" shape="16.60,-48.00,25.80 16.60,-47.96,25.80"/>
    </edge>
    <edge id=":R_CZ_0" function="internal">
        <lane id=":R_CZ_0_0" index="0" speed="12.50" length="0.10" shape="16.60,-30.10,25.90 16.60,-30.10,25.90"/>
    </edge>
    <edge id=":R_CZ_1" function="internal">
        <lane id=":R_CZ_1_0" index="0" speed="12.50" length="0.10" shape="16.60,-30.10,25.90 16.60,-30.10,26.00"/>
    </edge>
    <edge id=":SS_0" function="internal">
        <lane id=":SS_0_0" index="0" speed="13.89" length="0.10" shape="20.64,40.30,22.00 20.62,40.30,21.93"/>
    </edge>
    <edge id=":SS_1" function="internal">
        <lane id=":SS_1_0" index="0" speed="13.89" length="1.26" shape="17.32,40.57,23.80 17.45,40.52,22.55"/>
    </edge>
    <edge id=":S_CZ_0" function="internal">
        <lane id=":S_CZ_0_0" index="0" speed="12.50" length="1.63" shape="19.59,19.76,24.00 19.59,19.76,24.00"/>
    </edge>
    <edge id=":S_CZ_1" function="internal">
        <lane id=":S_CZ_1_0" index="0" speed="12.50" length="0.31" shape="19.59,19.76,24.00 19.59,19.85,24.00 19.58,19.92,24.00 19.57,19.98,24.00 19.56,20.07,24.00"/>
    </edge>

    <edge id="-E0" from="J0" to="J4" priority="-1">
        <lane id="-E0_0" index="0" speed="13.89" length="83.61" customShape="1" shape="48.85,-189.43,19.50 40.16,-174.43,20.66 30.58,-157.87,22.31 18.70,-131.00,24.25 16.24,-121.16,24.42 14.82,-113.85,24.66"/>
    </edge>
    <edge id="-E1" from="S_CZ" to="SS" priority="-1">
        <lane id="-E1_0" index="0" speed="13.89" length="20.62" customShape="1" shape="19.56,20.07,24.00 17.32,40.57,23.00"/>
    </edge>
    <edge id="-E2" from="R_CZ" to="S_CZ" priority="-1">
        <lane id="-E2_0" index="0" speed="11.11" length="50.00" customShape="1" shape="16.60,-30.10,25.90 18.30,-5.17,25.45 19.59,19.76,24.00"/>
    </edge>
    <edge id="-E3" from="RS" to="R_CZ" priority="-1">
        <lane id="-E3_0" index="0" speed="13.89" length="18.18" customShape="1" shape="13.42,-48.00,25.80 16.60,-30.10,25.90"/>
    </edge>
    <edge id="-E4" from="J2" to="SS" priority="-1">
        <lane id="-E4_0" index="0" speed="13.89" length="95.73" customShape="1" shape="26.99,135.69,20.00 25.91,84.05,20.70 23.98,63.30,21.40 20.64,40.30,23.00"/>
    </edge>
    <edge id="-E5" from="J4" to="RS" priority="-1">
        <lane id="-E5_0" index="0" speed="13.89" length="35.54" shape="14.32,-83.57,25.97 13.40,-48.04,25.80"/>
    </edge>
    <edge id="-E6" from="J5" to="J4" priority="-1">
        <lane id="-E6_0" index="0" speed="13.89" length="124.23" customShape="1" shape="-118.58,-89.71,27.21 -107.19,-87.23,26.82 -66.69,-88.83,26.54 5.33,-89.17,26.05"/>
    </edge>
    <edge id="E0" from="J4" to="J0" priority="-1">
        <lane id="E0_0" index="0" speed="13.89" length="82.58" customShape="1" shape="18.06,-113.21,24.68 19.54,-120.62,24.38 21.93,-130.02,24.25 33.63,-156.40,22.62 43.01,-172.85,20.00 51.58,-187.86,19.50"/>
    </edge>
    <edge id="E1" from="SS" to="S_CZ" priority="-1">
        <lane id="E1_0" index="0" speed="13.89" length="20.90" shape="20.62,40.30,23.00 19.59,19.76,24.00"/>
    </edge>
    <edge id="E2" from="S_CZ" to="R_CZ" priority="-1">
        <lane id="E2_0" index="0" speed="11.11" length="50.00" customShape="1" shape="19.59,19.76,24.00 18.30,-5.17,25.50 16.60,-30.10,25.90"/>
    </edge>
    <edge id="E3" from="R_CZ" to="RS" priority="-1">
        <lane id="E3_0" index="0" speed="13.89" length="17.90" shape="16.60,-30.10,26.00 16.60,-48.00,25.80"/>
    </edge>
    <edge id="E4" from="SS" to="J2" priority="-1">
        <lane id="E4_0" index="0" speed="13.89" length="95.67" customShape="1" shape="17.45,40.52,23.00 20.63,64.12,21.40 22.43,83.01,20.70 23.79,135.83,20.00"/>
    </edge>
    <edge id="E5" from="RS" to="J4" priority="-1">
        <lane id="E5_0" index="0" speed="13.89" length="35.54" shape="16.60,-47.96,25.80 17.52,-83.48,25.97"/>
    </edge>
    <edge id="E6" from="J4" to="J5" priority="-1">
        <lane id="E6_0" index="0" speed="13.89" length="123.53" customShape="1" shape="5.33,-92.37,26.03 -67.08,-92.19,26.14 -106.67,-90.61,26.82 -117.95,-92.78,27.19"/>
    </edge>

    <tlLogic id="J4" type="static" programID="0" offset="0">
        <phase duration="42" state="GGGgrr" name="Green"/>
        <phase duration="3"  state="yyyyrr" name="Yellow"/>
        <phase duration="3"  state="rrrrrr" name="Red"/>
        <phase duration="15" state="rrrrGG" name="Red"/>
        <phase duration="3"  state="rrrryy" name="Red"/>
        <phase duration="3"  state="rrrrrr" name="Red"/>
    </tlLogic>
    <tlLogic id="RS" type="static" programID="0" offset="0">
        <phase duration="83" state="rG"/>
        <phase duration="3"  state="yG"/>
        <phase duration="3"  state="gG"/>
    </tlLogic>
    <tlLogic id="SS" type="static" programID="0" offset="0">
        <phase duration="82" state="Gr"/>
        <phase duration="3"  state="Gy"/>
        <phase duration="2"  state="Gg"/>
    </tlLogic>

    <junction id="J0" type="dead_end" x="50.21" y="-188.64" z="20.00" incLanes="E0_0" intLanes="" shape="50.23,-188.63,20.00 47.46,-190.23,20.00 52.97,-187.07,20.00"/>
    <junction id="J2" type="dead_end" x="25.39" y="135.72" z="20.00" incLanes="E4_0" intLanes="" shape="25.39,135.72,20.00 28.59,135.65,20.00 22.19,135.80,20.00"/>
    <junction id="J4" type="traffic_light" x="16.11" y="-90.75" z="26.00" incLanes="-E0_0 E5_0 -E6_0" intLanes=":J4_0_0 :J4_1_0 :J4_2_0 :J4_6_0 :J4_4_0 :J4_5_0" shape="13.25,-114.17,26.00 19.63,-112.89,26.00 18.62,-106.72,26.00 18.30,-102.11,26.00 18.44,-98.27,26.00 18.78,-94.41,26.00 19.09,-89.73,26.00 19.12,-83.44,26.00 12.72,-83.61,26.00 11.95,-85.82,26.00 10.93,-86.60,26.00 9.49,-87.15,26.00 7.62,-87.47,26.00 5.34,-87.57,26.00 5.32,-93.97,26.00 7.98,-96.22,26.00 9.30,-99.02,26.00 10.62,-102.95,26.00 11.94,-108.00,26.00">
        <request index="0" response="000000" foes="001000" cont="0"/>
        <request index="1" response="000000" foes="111000" cont="0"/>
        <request index="2" response="000000" foes="100000" cont="0"/>
        <request index="3" response="000011" foes="100011" cont="1"/>
        <request index="4" response="000010" foes="000010" cont="0"/>
        <request index="5" response="001110" foes="001110" cont="0"/>
    </junction>
    <junction id="J5" type="dead_end" x="-118.25" y="-91.24" z="27.40" incLanes="E6_0" intLanes="" shape="-118.24,-91.27,27.40 -118.92,-88.15,27.40 -117.65,-94.35,27.40"/>
    <junction id="RS" type="traffic_light" x="15.00" y="-48.00" z="25.80" incLanes="-E5_0 E3_0" intLanes=":RS_0_0 :RS_1_0" shape="16.60,-48.00,25.80 13.40,-48.00,25.80" customShape="1">
        <request index="0" response="00" foes="00" cont="0"/>
        <request index="1" response="00" foes="00" cont="0"/>
    </junction>
    <junction id="R_CZ" type="priority" x="15.00" y="-30.00" z="26.00" incLanes="-E3_0 E2_0" intLanes=":R_CZ_0_0 :R_CZ_1_0" shape="11.80,-30.10,25.90 18.20,-30.10,25.90 11.81,-29.71,25.90" customShape="1">
        <request index="0" response="00" foes="00" cont="0"/>
        <request index="1" response="00" foes="00" cont="0"/>
    </junction>
    <junction id="SS" type="traffic_light" x="19.00" y="40.00" z="23.00" incLanes="-E4_0 -E1_0" intLanes=":SS_0_0 :SS_1_0" shape="20.64,40.30,23.00 17.45,40.52,23.00" customShape="1">
        <request index="0" response="00" foes="00" cont="0"/>
        <request index="1" response="00" foes="00" cont="0"/>
    </junction>
    <junction id="S_CZ" type="priority" x="18.00" y="20.00" z="24.00" incLanes="E1_0 -E2_0" intLanes=":S_CZ_0_0 :S_CZ_1_0" shape="19.59,19.76,24.00 14.81,20.31,24.00" customShape="1">
        <request index="0" response="00" foes="00" cont="0"/>
        <request index="1" response="00" foes="00" cont="0"/>
    </junction>

    <junction id=":J4_6_0" type="internal" x="16.87" y="-87.27" z="25.98" incLanes=":J4_3_0 -E0_0" intLanes=":J4_0_0 :J4_1_0 :J4_5_0"/>

    <connection from="-E0" to="E6" fromLane="0" toLane="0" via=":J4_0_0" tl="J4" linkIndex="0" dir="l" state="O"/>
    <connection from="-E0" to="-E5" fromLane="0" toLane="0" via=":J4_1_0" tl="J4" linkIndex="1" dir="s" state="O"/>
    <connection from="-E1" to="E4" fromLane="0" toLane="0" via=":SS_1_0" tl="SS" linkIndex="0" dir="s" state="O"/>
    <connection from="-E2" to="-E1" fromLane="0" toLane="0" via=":S_CZ_1_0" dir="s" state="M"/>
    <connection from="-E3" to="-E2" fromLane="0" toLane="0" via=":R_CZ_0_0" dir="s" state="M"/>
    <connection from="-E4" to="E1" fromLane="0" toLane="0" via=":SS_0_0" tl="SS" linkIndex="1" dir="s" state="O"/>
    <connection from="-E5" to="-E3" fromLane="0" toLane="0" via=":RS_0_0" tl="RS" linkIndex="0" dir="s" state="O"/>
    <connection from="-E6" to="-E5" fromLane="0" toLane="0" via=":J4_4_0" tl="J4" linkIndex="4" dir="l" state="o"/>
    <connection from="-E6" to="E0" fromLane="0" toLane="0" via=":J4_5_0" tl="J4" linkIndex="5" dir="r" state="o"/>
    <connection from="E1" to="E2" fromLane="0" toLane="0" via=":S_CZ_0_0" dir="s" state="M"/>
    <connection from="E2" to="E3" fromLane="0" toLane="0" via=":R_CZ_1_0" dir="s" state="M"/>
    <connection from="E3" to="E5" fromLane="0" toLane="0" via=":RS_1_0" tl="RS" linkIndex="1" dir="s" state="O"/>
    <connection from="E5" to="E0" fromLane="0" toLane="0" via=":J4_2_0" tl="J4" linkIndex="2" dir="s" state="O"/>
    <connection from="E5" to="E6" fromLane="0" toLane="0" via=":J4_3_0" tl="J4" linkIndex="3" dir="r" state="o"/>

    <connection from=":J4_0" to="E6" fromLane="0" toLane="0" dir="l" state="M"/>
    <connection from=":J4_1" to="-E5" fromLane="0" toLane="0" dir="s" state="M"/>
    <connection from=":J4_2" to="E0" fromLane="0" toLane="0" dir="s" state="M"/>
    <connection from=":J4_3" to="E6" fromLane="0" toLane="0" via=":J4_6_0" dir="r" state="m"/>
    <connection from=":J4_6" to="E6" fromLane="0" toLane="0" dir="r" state="M"/>
    <connection from=":J4_4" to="-E5" fromLane="0" toLane="0" dir="l" state="M"/>
    <connection from=":J4_5" to="E0" fromLane="0" toLane="0" dir="r" state="M"/>
    <connection from=":RS_0" to="-E3" fromLane="0" toLane="0" dir="s" state="M"/>
    <connection from=":RS_1" to="E5" fromLane="0" toLane="0" dir="s" state="M"/>
    <connection from=":R_CZ_0" to="-E2" fromLane="0" toLane="0" dir="s" state="M"/>
    <connection from=":R_CZ_1" to="E3" fromLane="0" toLane="0" dir="s" state="M"/>
    <connection from=":SS_0" to="E1" fromLane="0" toLane="0" dir="s" state="M"/>
    <connection from=":SS_1" to="E4" fromLane="0" toLane="0" dir="s" state="M"/>
    <connection from=":S_CZ_0" to="E2" fromLane="0" toLane="0" dir="s" state="M"/>
    <connection from=":S_CZ_1" to="-E1" fromLane="0" toLane="0" dir="s" state="M"/>

</net>
