<?xml version="1.0" encoding="UTF-8"?>

<routes xmlns:xsi="http://www.w3.org/2001/XMLSchema-instance" xsi:noNamespaceSchemaLocation="http://sumo.dlr.de/xsd/routes_file.xsd">
    <vType id="normal" accel="3" decel="6.5" sigma="0" length="5" minGap="2.5" vClass="passenger" maxSpeed="14"/>
    <vType id="bus" accel="3" decel="5.5" sigma="0" length="11" minGap="3" vClass="bus" maxSpeed="11" color="1,0,0"/> <!--赤色-->
    <vType id="large" accel="3" decel="6.5" sigma="0" length="12" minGap="2.5" vClass="truck" maxSpeed="14" color="0,0,1"/> <!--青色-->
    
    <flow id="TE1" type="normal" from="-E4" to="E0" begin="0" probability="0.04"/>
    <!-- <flow id="TE2" type="bus" from="-E4" to="E0" begin="0" probability="0.0008"/> -->
    <flow id="TE3" type="large" from="-E4" to="E0" begin="0" probability="0.0025"/>

    <flow id="TE4" type="normal" from="-E4" to="E6" begin="0" probability="0.01"/>
    <!-- <flow id="TE5" type="bus" from="-E4" to="E6" begin="0" probability="0.0005"/> -->
    <flow id="TE6" type="large" from="-E4" to="E6" begin="0" probability="0.002"/>

    <flow id="TW1" type="normal" from="-E0" to="E4" begin="0" probability="0.1"/>
    <!-- <flow id="TW2" type="bus" from="-E0" to="E4" begin="0" probability="0.001"/> -->
    <flow id="TW3" type="large" from="-E0" to="E4" begin="0" probability="0.0025"/>

    <flow id="TW4" type="normal" from="-E0" to="E6" begin="0" probability="0.02"/>
    <!-- <flow id="TW5" type="bus" from="-E0" to="E6" begin="0" probability="0.0005"/> -->
    <flow id="TW6" type="large" from="-E0" to="E6" begin="0" probability="0.001"/>

    <flow id="B1" type="normal" from="-E6" to="E4" begin="0" probability="0.01"/>
    <!-- <flow id="B2" type="bus" from="-E6" to="E4" begin="0" probability="0.0005"/> -->
    <flow id="B3" type="large" from="-E6" to="E4" begin="0" probability="0.0005"/>

    <flow id="B4" type="normal" from="-E6" to="E0" begin="0" probability="0.02"/>
    <!-- <flow id="B5" type="bus" from="-E6" to="E0" begin="0" probability="0.0005"/> -->
    <flow id="B6" type="large" from="-E6" to="E0" begin="0" probability="0.0005"/>
<!-- 
    <flow id="TE1" type="normal" from="-E4" to="E0" begin="0" number="111"/>
    <flow id="TE2" type="bus" from="-E4" to="E0" begin="0" number="3"/>
    <flow id="TE3" type="large" from="-E4" to="E0" begin="0" number="9"/>

    <flow id="TE4" type="normal" from="-E4" to="B" begin="0" number="74"/>
    <flow id="TE5" type="bus" from="-E4" to="B" begin="0" number="2"/>
    <flow id="TE6" type="large" from="-E4" to="B" begin="0" number="6"/>

    <flow id="TW1" type="normal" from="-E0" to="E4" begin="0" number="175"/>
    <flow id="TW2" type="bus" from="-E0" to="E4" begin="0" number="4"/>
    <flow id="TW3" type="large" from="-E0" to="E4" begin="0" number="9"/>

    <flow id="TW4" type="normal" from="-E0" to="B" begin="0" number="75"/>
    <flow id="TW5" type="bus" from="-E0" to="B" begin="0" number="2"/>
    <flow id="TW6" type="large" from="-E0" to="B" begin="0" number="4"/>

    <flow id="B1" type="normal" from="-B" to="E4" begin="0" number="62"/>
    <flow id="B2" type="bus" from="-B" to="E4" begin="0" number="2"/>
    <flow id="B3" type="large" from="-B" to="E4" begin="0" number="2"/>

    <flow id="B4" type="normal" from="-B" to="E0" begin="0" number="64"/>
    <flow id="B5" type="bus" from="-B" to="E0" begin="0" number="2"/>
    <flow id="B6" type="large" from="-B" to="E0" begin="0" number="2"/> -->

</routes>
