<?xml version="1.0" encoding="UTF-8"?>

<!-- generated on 2023-12-04 15:54:57 by Eclipse SUMO netedit Version 1.17.0
<configuration xmlns:xsi="http://www.w3.org/2001/XMLSchema-instance" xsi:noNamespaceSchemaLocation="http://sumo.dlr.de/xsd/netconvertConfiguration.xsd">

    <input>
        <sumocfg-file value="/home/traffic/SUMO_SCENARIO/fuchu/scenario_1/sumo.sumocfg"/>
        <additional-files value="/home/traffic/SUMO_SCENARIO/fuchu/scenario_1/../settings/detection.add.xml"/>
        <route-files value="/home/traffic/SUMO_SCENARIO/fuchu/scenario_1/../settings/Tjiro.rou.xml"/>
        <sumo-net-file value="/home/traffic/SUMO_SCENARIO/fuchu/scenario_1/../settings/Tjiro.net.xml"/>
    </input>

    <output>
        <output-file value="/home/traffic/SUMO_SCENARIO/fuchu/scenario_1/../settings/Tjiro.net.xml"/>
    </output>

    <processing>
        <geometry.min-radius.fix.railways value="false"/>
        <geometry.max-grade.fix value="false"/>
        <offset.disable-normalization value="true"/>
        <lefthand value="1"/>
    </processing>

    <junctions>
        <no-turnarounds value="true"/>
        <junctions.corner-detail value="5"/>
        <junctions.limit-turn-speed value="5.50"/>
        <rectangular-lane-cut value="0"/>
    </junctions>

    <pedestrian>
        <walkingareas value="0"/>
    </pedestrian>

</configuration>
-->

<net version="1.16" junctionCornerDetail="5" lefthand="true" limitTurnSpeed="5.50" xmlns:xsi="http://www.w3.org/2001/XMLSchema-instance" xsi:noNamespaceSchemaLocation="http://sumo.dlr.de/xsd/net_file.xsd">

    <location netOffset="0.00,0.00" convBoundary="-135.00,-243.00,165.00,227.00" origBoundary="-10000000000.00,-10000000000.00,10000000000.00,10000000000.00" projParameter="!"/>

    <edge id=":E_J_1_0" function="internal">
        <lane id=":E_J_1_0_0" index="0" speed="13.89" length="0.10" shape="55.00,82.60 55.00,82.60"/>
    </edge>
    <edge id=":E_J_1_1" function="internal">
        <lane id=":E_J_1_1_0" index="0" speed="13.89" length="0.10" shape="55.00,85.80 55.00,85.80"/>
    </edge>
    <edge id=":N_J_1_0" function="internal">
        <lane id=":N_J_1_0_0" index="0" speed="13.89" length="0.10" shape="13.40,124.00 13.40,124.00"/>
    </edge>
    <edge id=":N_J_1_1" function="internal">
        <lane id=":N_J_1_1_0" index="0" speed="13.89" length="0.10" shape="16.60,124.00 16.60,124.00"/>
    </edge>
    <edge id=":Regu_0" function="internal">
        <lane id=":Regu_0_0" index="0" speed="12.50" length="0.11" shape="16.60,-29.84 16.70,-29.88"/>
    </edge>
    <edge id=":Regu_1" function="internal">
        <lane id=":Regu_1_0" index="0" speed="12.50" length="0.18" shape="16.51,-29.87 16.69,-29.88"/>
    </edge>
    <edge id=":Regu_stop_0" function="internal">
        <lane id=":Regu_stop_0_0" index="0" speed="13.89" length="3.49" shape="13.40,-45.94 13.42,-42.45"/>
    </edge>
    <edge id=":Regu_stop_1" function="internal">
        <lane id=":Regu_stop_1_0" index="0" speed="13.89" length="3.40" shape="16.60,-42.54 16.60,-45.94"/>
    </edge>
    <edge id=":S_J_1_0" function="internal">
        <lane id=":S_J_1_0_0" index="0" speed="13.89" length="7.85" shape="16.04,33.16 15.73,35.47 15.58,37.07 15.33,38.64 14.71,40.88"/>
    </edge>
    <edge id=":S_J_1_1" function="internal">
        <lane id=":S_J_1_1_0" index="0" speed="13.89" length="7.83" shape="16.60,40.95 16.60,33.12"/>
    </edge>
    <edge id=":St_0" function="internal">
        <lane id=":St_0_0" index="0" speed="12.50" length="0.10" shape="16.67,29.95 16.59,29.89"/>
    </edge>
    <edge id=":St_1" function="internal">
        <lane id=":St_1_0" index="0" speed="12.50" length="0.10" shape="16.60,29.95 16.60,30.00"/>
    </edge>
    <edge id=":St_stop_0" function="internal">
        <lane id=":St_stop_0_0" index="0" speed="13.89" length="0.32" shape="13.43,49.68 13.40,50.00"/>
    </edge>
    <edge id=":St_stop_1" function="internal">
        <lane id=":St_stop_1_0" index="0" speed="13.89" length="0.32" shape="16.60,50.00 16.60,49.68"/>
    </edge>
    <edge id=":Top_0" function="internal">
        <lane id=":Top_0_0" index="0" speed="6.51" length="9.03" shape="13.40,77.00 13.05,79.45 12.00,81.20 10.25,82.25 7.80,82.60"/>
    </edge>
    <edge id=":Top_1" function="internal">
        <lane id=":Top_1_0" index="0" speed="13.89" length="14.40" shape="13.40,77.00 13.40,91.40"/>
    </edge>
    <edge id=":Top_2" function="internal">
        <lane id=":Top_2_0" index="0" speed="8.00" length="4.07" shape="13.40,77.00 13.95,80.85 14.04,81.00"/>
    </edge>
    <edge id=":Top_12" function="internal">
        <lane id=":Top_12_0" index="0" speed="8.00" length="10.13" shape="14.04,81.00 15.60,83.60 18.35,85.25 22.20,85.80"/>
    </edge>
    <edge id=":Top_3" function="internal">
        <lane id=":Top_3_0" index="0" speed="6.51" length="9.03" shape="22.20,82.60 19.75,82.25 18.00,81.20 16.95,79.45 16.60,77.00"/>
    </edge>
    <edge id=":Top_4" function="internal">
        <lane id=":Top_4_0" index="0" speed="13.89" length="14.40" shape="22.20,82.60 7.80,82.60"/>
    </edge>
    <edge id=":Top_5" function="internal">
        <lane id=":Top_5_0" index="0" speed="8.00" length="4.07" shape="22.20,82.60 18.35,83.15 18.20,83.24"/>
    </edge>
    <edge id=":Top_13" function="internal">
        <lane id=":Top_13_0" index="0" speed="8.00" length="10.13" shape="18.20,83.24 15.60,84.80 13.95,87.55 13.40,91.40"/>
    </edge>
    <edge id=":Top_6" function="internal">
        <lane id=":Top_6_0" index="0" speed="6.51" length="9.03" shape="16.60,91.40 16.95,88.95 18.00,87.20 19.75,86.15 22.20,85.80"/>
    </edge>
    <edge id=":Top_7" function="internal">
        <lane id=":Top_7_0" index="0" speed="13.89" length="14.40" shape="16.60,91.40 16.60,77.00"/>
    </edge>
    <edge id=":Top_8" function="internal">
        <lane id=":Top_8_0" index="0" speed="8.00" length="4.07" shape="16.60,91.40 16.05,87.55 15.96,87.40"/>
    </edge>
    <edge id=":Top_14" function="internal">
        <lane id=":Top_14_0" index="0" speed="8.00" length="10.13" shape="15.96,87.40 14.40,84.80 11.65,83.15 7.80,82.60"/>
    </edge>
    <edge id=":Top_9" function="internal">
        <lane id=":Top_9_0" index="0" speed="6.51" length="9.03" shape="7.80,85.80 10.25,86.15 12.00,87.20 13.05,88.95 13.40,91.40"/>
    </edge>
    <edge id=":Top_10" function="internal">
        <lane id=":Top_10_0" index="0" speed="13.89" length="14.40" shape="7.80,85.80 22.20,85.80"/>
    </edge>
    <edge id=":Top_11" function="internal">
        <lane id=":Top_11_0" index="0" speed="8.00" length="4.07" shape="7.80,85.80 11.65,85.25 11.80,85.16"/>
    </edge>
    <edge id=":Top_15" function="internal">
        <lane id=":Top_15_0" index="0" speed="8.00" length="10.13" shape="11.80,85.16 14.40,83.60 16.05,80.85 16.60,77.00"/>
    </edge>
    <edge id=":W_J_1_0" function="internal">
        <lane id=":W_J_1_0_0" index="0" speed="13.89" length="0.10" shape="-25.00,82.60 -25.00,82.60"/>
    </edge>
    <edge id=":W_J_1_1" function="internal">
        <lane id=":W_J_1_1_0" index="0" speed="13.89" length="0.10" shape="-25.00,85.80 -25.00,85.80"/>
    </edge>

    <edge id="-E_1" from="E_J_1" to="E_0" priority="-1">
        <lane id="-E_1_0" index="0" speed="13.89" length="110.00" shape="55.00,85.80 165.00,85.80"/>
    </edge>
    <edge id="-E_2" from="Top" to="E_J_1" priority="-1">
        <lane id="-E_2_0" index="0" speed="13.89" length="32.80" shape="22.20,85.80 55.00,85.80"/>
    </edge>
    <edge id="-N_1" from="N_J_1" to="N_0" priority="-1">
        <lane id="-N_1_0" index="0" speed="13.89" length="103.00" shape="13.40,124.00 13.40,227.00"/>
    </edge>
    <edge id="-N_2" from="Top" to="N_J_1" priority="-1">
        <lane id="-N_2_0" index="0" speed="13.89" length="32.60" shape="13.40,91.40 13.40,124.00"/>
    </edge>
    <edge id="-S_1" from="Regu_stop" to="S_0" priority="-1">
        <lane id="-S_1_0" index="0" speed="13.89" length="197.06" shape="16.60,-45.94 16.60,-243.00"/>
    </edge>
    <edge id="-S_2" from="St_stop" to="S_J_1" priority="-1">
        <lane id="-S_2_0" index="0" speed="13.89" length="8.74" shape="16.60,49.68 16.60,40.95"/>
    </edge>
    <edge id="-S_3" from="Top" to="St_stop" priority="-1" length="27.00">
        <lane id="-S_3_0" index="0" speed="13.89" length="27.00" shape="16.60,77.00 16.60,50.00"/>
    </edge>
    <edge id="-W_1" from="W_J_1" to="W_0" priority="-1">
        <lane id="-W_1_0" index="0" speed="13.89" length="110.00" shape="-25.00,82.60 -135.00,82.60"/>
    </edge>
    <edge id="-W_2" from="Top" to="W_J_1" priority="-1">
        <lane id="-W_2_0" index="0" speed="13.89" length="32.80" shape="7.80,82.60 -25.00,82.60"/>
    </edge>
    <edge id="E_1" from="E_0" to="E_J_1" priority="-1">
        <lane id="E_1_0" index="0" speed="13.89" length="110.00" shape="165.00,82.60 55.00,82.60"/>
    </edge>
    <edge id="E_2" from="E_J_1" to="Top" priority="-1">
        <lane id="E_2_0" index="0" speed="13.89" length="32.80" shape="55.00,82.60 22.20,82.60"/>
    </edge>
    <edge id="N_1" from="N_0" to="N_J_1" priority="-1">
        <lane id="N_1_0" index="0" speed="13.89" length="103.00" shape="16.60,227.00 16.60,124.00"/>
    </edge>
    <edge id="N_2" from="N_J_1" to="Top" priority="-1">
        <lane id="N_2_0" index="0" speed="13.89" length="32.60" shape="16.60,124.00 16.60,91.40"/>
    </edge>
    <edge id="Regu_in" from="Regu_stop" to="Regu" priority="-1" shape="15.00,-43.00 15.10,-30.10">
        <lane id="Regu_in_0" index="0" speed="13.89" length="13.07" customShape="1" shape="13.42,-42.45 13.57,-39.33 14.15,-36.90 14.94,-34.87 15.95,-32.63 16.51,-29.87"/>
    </edge>
    <edge id="Regu_lane" from="Regu" to="St" priority="-1">
        <lane id="Regu_lane_0" index="0" speed="11.11" length="59.83" customShape="1" shape="16.69,-29.88 16.67,29.95"/>
    </edge>
    <edge id="Regu_out" from="Regu" to="Regu_stop" priority="-1" shape="15.10,-30.10 15.00,-43.00">
        <lane id="Regu_out_0" index="0" speed="13.89" length="12.67" shape="16.70,-29.88 16.60,-42.54"/>
    </edge>
    <edge id="S_1" from="S_0" to="Regu_stop" priority="-1">
        <lane id="S_1_0" index="0" speed="13.89" length="197.06" shape="13.40,-243.00 13.40,-45.94"/>
    </edge>
    <edge id="S_2" from="S_J_1" to="St_stop" priority="-1">
        <lane id="S_2_0" index="0" speed="13.89" length="8.93" customShape="1" shape="14.71,40.88 14.57,41.32 13.82,44.32 13.63,46.94 13.43,49.68"/>
    </edge>
    <edge id="S_3" from="St_stop" to="Top" priority="-1" length="27.00">
        <lane id="S_3_0" index="0" speed="13.89" length="27.00" shape="13.40,50.00 13.40,77.00"/>
    </edge>
    <edge id="St_in" from="S_J_1" to="St" priority="-1">
        <lane id="St_in_0" index="0" speed="13.89" length="3.17" shape="16.60,33.12 16.60,29.95"/>
    </edge>
    <edge id="St_lane" from="St" to="Regu" priority="-1">
        <lane id="St_lane_0" index="0" speed="11.11" length="59.84" shape="16.60,30.00 16.60,-29.84"/>
    </edge>
    <edge id="St_out" from="St" to="S_J_1" priority="-1">
        <lane id="St_out_0" index="0" speed="13.89" length="3.32" customShape="1" shape="16.59,29.89 16.04,33.16"/>
    </edge>
    <edge id="W_1" from="W_0" to="W_J_1" priority="-1">
        <lane id="W_1_0" index="0" speed="13.89" length="110.00" shape="-135.00,85.80 -25.00,85.80"/>
    </edge>
    <edge id="W_2" from="W_J_1" to="Top" priority="-1">
        <lane id="W_2_0" index="0" speed="13.89" length="32.80" shape="-25.00,85.80 7.80,85.80"/>
    </edge>

    <tlLogic id="J2" type="static" programID="0" offset="0">
        <phase duration="25" state="GGgrrrGGgrrr" name="Green"/>
        <phase duration="3"  state="yyyrrryyyrrr" name="Yellow"/>
        <phase duration="3"  state="rrrrrrrrrrrr" name="Red"/>
        <phase duration="83" state="rrrGGgrrrGGg" name="Red"/>
        <phase duration="3"  state="rrryyyrrryyy" name="Red"/>
        <phase duration="3"  state="rrrrrrrrrrrr" name="Red"/>
    </tlLogic>
    <tlLogic id="RS" type="static" programID="0" offset="0">
        <phase duration="30" state="rO"/>
    </tlLogic>
    <tlLogic id="SS" type="static" programID="0" offset="0">
        <phase duration="82" state="Or"/>
    </tlLogic>

    <junction id="E_0" type="dead_end" x="165.00" y="84.20" incLanes="-E_1_0" intLanes="" shape="165.00,84.20 165.00,87.40 165.00,84.20"/>
    <junction id="E_J_1" type="priority" x="55.00" y="84.20" incLanes="E_1_0 -E_2_0" intLanes=":E_J_1_0_0 :E_J_1_1_0" shape="55.00,81.00 55.00,87.40 55.00,81.00">
        <request index="0" response="00" foes="00" cont="0"/>
        <request index="1" response="00" foes="00" cont="0"/>
    </junction>
    <junction id="N_0" type="dead_end" x="15.00" y="227.00" incLanes="-N_1_0" intLanes="" shape="15.00,227.00 11.80,227.00 15.00,227.00"/>
    <junction id="N_J_1" type="priority" x="15.00" y="124.00" incLanes="-N_2_0 N_1_0" intLanes=":N_J_1_0_0 :N_J_1_1_0" shape="11.80,124.00 18.20,124.00 11.80,124.00">
        <request index="0" response="00" foes="00" cont="0"/>
        <request index="1" response="00" foes="00" cont="0"/>
    </junction>
    <junction id="Regu" type="priority" x="15.00" y="-30.00" incLanes="St_lane_0 Regu_in_0" intLanes=":Regu_0_0 :Regu_1_0" shape="18.20,-29.84 15.09,-29.84 18.21,-29.91" customShape="1">
        <request index="0" response="00" foes="00" cont="0"/>
        <request index="1" response="00" foes="00" cont="0"/>
    </junction>
    <junction id="Regu_stop" type="traffic_light" x="15.00" y="-43.00" incLanes="S_1_0 Regu_out_0" intLanes=":Regu_stop_0_0 :Regu_stop_1_0" shape="11.80,-45.94 18.20,-45.94 18.20,-42.62 11.82,-42.31">
        <request index="0" response="00" foes="00" cont="0"/>
        <request index="1" response="00" foes="00" cont="0"/>
    </junction>
    <junction id="S_0" type="dead_end" x="15.00" y="-243.00" incLanes="-S_1_0" intLanes="" shape="15.00,-243.00 18.20,-243.00 15.00,-243.00"/>
    <junction id="S_J_1" type="priority" x="15.00" y="37.00" incLanes="St_out_0 -S_2_0" intLanes=":S_J_1_0_0 :S_J_1_1_0" shape="14.59,33.26 18.20,33.00 18.20,41.00 12.89,40.82 13.54,38.60 14.24,35.88" customShape="1">
        <request index="0" response="00" foes="00" cont="0"/>
        <request index="1" response="00" foes="00" cont="0"/>
    </junction>
    <junction id="St" type="priority" x="15.00" y="30.00" incLanes="Regu_lane_0 St_in_0" intLanes=":St_0_0 :St_1_0" shape="15.03,29.89 18.20,30.00 14.92,29.89" customShape="1">
        <request index="0" response="00" foes="00" cont="0"/>
        <request index="1" response="00" foes="00" cont="0"/>
    </junction>
    <junction id="St_stop" type="traffic_light" x="15.00" y="50.00" incLanes="S_2_0 -S_3_0" intLanes=":St_stop_0_0 :St_stop_1_0" shape="11.83,49.68 18.20,49.68 18.20,50.08 11.80,50.08">
        <request index="0" response="00" foes="00" cont="0"/>
        <request index="1" response="00" foes="00" cont="0"/>
    </junction>
    <junction id="Top" type="traffic_light" x="15.00" y="84.20" incLanes="S_3_0 E_2_0 N_2_0 W_2_0" intLanes=":Top_0_0 :Top_1_0 :Top_12_0 :Top_3_0 :Top_4_0 :Top_13_0 :Top_6_0 :Top_7_0 :Top_14_0 :Top_9_0 :Top_10_0 :Top_15_0" shape="11.80,77.00 18.20,77.00 18.64,79.22 19.20,80.00 19.98,80.56 20.98,80.89 22.20,81.00 22.20,87.40 19.98,87.84 19.20,88.40 18.64,89.18 18.31,90.18 18.20,91.40 11.80,91.40 11.36,89.18 10.80,88.40 10.02,87.84 9.02,87.51 7.80,87.40 7.80,81.00 10.02,80.56 10.80,80.00 11.36,79.22 11.69,78.22">
        <request index="0"  response="000000000000" foes="000100010000" cont="0"/>
        <request index="1"  response="100000100000" foes="111100110000" cont="0"/>
        <request index="2"  response="100011100000" foes="110111110000" cont="1"/>
        <request index="3"  response="000010000000" foes="100010000000" cont="0"/>
        <request index="4"  response="000110000111" foes="100110000111" cont="0"/>
        <request index="5"  response="111110000110" foes="111110000110" cont="1"/>
        <request index="6"  response="000000000000" foes="010000000100" cont="0"/>
        <request index="7"  response="100000100000" foes="110000111100" cont="0"/>
        <request index="8"  response="100000100111" foes="110000110111" cont="1"/>
        <request index="9"  response="000000000010" foes="000000100010" cont="0"/>
        <request index="10" response="000111000110" foes="000111100110" cont="0"/>
        <request index="11" response="000110011110" foes="000110111110" cont="1"/>
    </junction>
    <junction id="W_0" type="dead_end" x="-135.00" y="84.20" incLanes="-W_1_0" intLanes="" shape="-135.00,84.20 -135.00,81.00 -135.00,84.20"/>
    <junction id="W_J_1" type="priority" x="-25.00" y="84.20" incLanes="-W_2_0 W_1_0" intLanes=":W_J_1_0_0 :W_J_1_1_0" shape="-25.00,81.00 -25.00,87.40 -25.00,81.00">
        <request index="0" response="00" foes="00" cont="0"/>
        <request index="1" response="00" foes="00" cont="0"/>
    </junction>

    <junction id=":Top_12_0" type="internal" x="14.04" y="81.00" incLanes=":Top_2_0 N_2_0" intLanes=":Top_4_0 :Top_5_0 :Top_6_0 :Top_7_0 :Top_10_0 :Top_11_0"/>
    <junction id=":Top_13_0" type="internal" x="18.20" y="83.24" incLanes=":Top_5_0 W_2_0" intLanes=":Top_1_0 :Top_2_0 :Top_7_0 :Top_8_0 :Top_9_0 :Top_10_0"/>
    <junction id=":Top_14_0" type="internal" x="15.96" y="87.40" incLanes=":Top_8_0 S_3_0" intLanes=":Top_0_0 :Top_1_0 :Top_4_0 :Top_5_0 :Top_10_0 :Top_11_0"/>
    <junction id=":Top_15_0" type="internal" x="11.80" y="85.16" incLanes=":Top_11_0 E_2_0" intLanes=":Top_1_0 :Top_2_0 :Top_3_0 :Top_4_0 :Top_7_0 :Top_8_0"/>

    <connection from="-E_2" to="-E_1" fromLane="0" toLane="0" via=":E_J_1_1_0" dir="s" state="M"/>
    <connection from="-N_2" to="-N_1" fromLane="0" toLane="0" via=":N_J_1_0_0" dir="s" state="M"/>
    <connection from="-S_2" to="St_in" fromLane="0" toLane="0" via=":S_J_1_1_0" dir="s" state="M"/>
    <connection from="-S_3" to="-S_2" fromLane="0" toLane="0" via=":St_stop_1_0" tl="SS" linkIndex="1" dir="s" state="O"/>
    <connection from="-W_2" to="-W_1" fromLane="0" toLane="0" via=":W_J_1_0_0" dir="s" state="M"/>
    <connection from="E_1" to="E_2" fromLane="0" toLane="0" via=":E_J_1_0_0" dir="s" state="M"/>
    <connection from="E_2" to="-S_3" fromLane="0" toLane="0" via=":Top_3_0" tl="J2" linkIndex="3" dir="l" state="o"/>
    <connection from="E_2" to="-W_2" fromLane="0" toLane="0" via=":Top_4_0" tl="J2" linkIndex="4" dir="s" state="o"/>
    <connection from="E_2" to="-N_2" fromLane="0" toLane="0" via=":Top_5_0" tl="J2" linkIndex="5" dir="r" state="o"/>
    <connection from="N_1" to="N_2" fromLane="0" toLane="0" via=":N_J_1_1_0" dir="s" state="M"/>
    <connection from="N_2" to="-E_2" fromLane="0" toLane="0" via=":Top_6_0" tl="J2" linkIndex="6" dir="l" state="O"/>
    <connection from="N_2" to="-S_3" fromLane="0" toLane="0" via=":Top_7_0" tl="J2" linkIndex="7" dir="s" state="O"/>
    <connection from="N_2" to="-W_2" fromLane="0" toLane="0" via=":Top_8_0" tl="J2" linkIndex="8" dir="r" state="o"/>
    <connection from="Regu_in" to="Regu_lane" fromLane="0" toLane="0" via=":Regu_1_0" dir="s" state="M"/>
    <connection from="Regu_lane" to="St_out" fromLane="0" toLane="0" via=":St_0_0" dir="s" state="M"/>
    <connection from="Regu_out" to="-S_1" fromLane="0" toLane="0" via=":Regu_stop_1_0" tl="RS" linkIndex="1" dir="s" state="O"/>
    <connection from="S_1" to="Regu_in" fromLane="0" toLane="0" via=":Regu_stop_0_0" tl="RS" linkIndex="0" dir="s" state="O"/>
    <connection from="S_2" to="S_3" fromLane="0" toLane="0" via=":St_stop_0_0" tl="SS" linkIndex="0" dir="s" state="O"/>
    <connection from="S_3" to="-W_2" fromLane="0" toLane="0" via=":Top_0_0" tl="J2" linkIndex="0" dir="l" state="O"/>
    <connection from="S_3" to="-N_2" fromLane="0" toLane="0" via=":Top_1_0" tl="J2" linkIndex="1" dir="s" state="O"/>
    <connection from="S_3" to="-E_2" fromLane="0" toLane="0" via=":Top_2_0" tl="J2" linkIndex="2" dir="r" state="o"/>
    <connection from="St_in" to="St_lane" fromLane="0" toLane="0" via=":St_1_0" dir="s" state="M"/>
    <connection from="St_lane" to="Regu_out" fromLane="0" toLane="0" via=":Regu_0_0" dir="s" state="M"/>
    <connection from="St_out" to="S_2" fromLane="0" toLane="0" via=":S_J_1_0_0" dir="s" state="M"/>
    <connection from="W_1" to="W_2" fromLane="0" toLane="0" via=":W_J_1_1_0" dir="s" state="M"/>
    <connection from="W_2" to="-N_2" fromLane="0" toLane="0" via=":Top_9_0" tl="J2" linkIndex="9" dir="l" state="o"/>
    <connection from="W_2" to="-E_2" fromLane="0" toLane="0" via=":Top_10_0" tl="J2" linkIndex="10" dir="s" state="o"/>
    <connection from="W_2" to="-S_3" fromLane="0" toLane="0" via=":Top_11_0" tl="J2" linkIndex="11" dir="r" state="o"/>

    <connection from=":E_J_1_0" to="E_2" fromLane="0" toLane="0" dir="s" state="M"/>
    <connection from=":E_J_1_1" to="-E_1" fromLane="0" toLane="0" dir="s" state="M"/>
    <connection from=":N_J_1_0" to="-N_1" fromLane="0" toLane="0" dir="s" state="M"/>
    <connection from=":N_J_1_1" to="N_2" fromLane="0" toLane="0" dir="s" state="M"/>
    <connection from=":Regu_0" to="Regu_out" fromLane="0" toLane="0" dir="s" state="M"/>
    <connection from=":Regu_1" to="Regu_lane" fromLane="0" toLane="0" dir="s" state="M"/>
    <connection from=":Regu_stop_0" to="Regu_in" fromLane="0" toLane="0" dir="s" state="M"/>
    <connection from=":Regu_stop_1" to="-S_1" fromLane="0" toLane="0" dir="s" state="M"/>
    <connection from=":S_J_1_0" to="S_2" fromLane="0" toLane="0" dir="s" state="M"/>
    <connection from=":S_J_1_1" to="St_in" fromLane="0" toLane="0" dir="s" state="M"/>
    <connection from=":St_0" to="St_out" fromLane="0" toLane="0" dir="s" state="M"/>
    <connection from=":St_1" to="St_lane" fromLane="0" toLane="0" dir="s" state="M"/>
    <connection from=":St_stop_0" to="S_3" fromLane="0" toLane="0" dir="s" state="M"/>
    <connection from=":St_stop_1" to="-S_2" fromLane="0" toLane="0" dir="s" state="M"/>
    <connection from=":Top_0" to="-W_2" fromLane="0" toLane="0" dir="l" state="M"/>
    <connection from=":Top_1" to="-N_2" fromLane="0" toLane="0" dir="s" state="M"/>
    <connection from=":Top_2" to="-E_2" fromLane="0" toLane="0" via=":Top_12_0" dir="r" state="m"/>
    <connection from=":Top_12" to="-E_2" fromLane="0" toLane="0" dir="r" state="M"/>
    <connection from=":Top_3" to="-S_3" fromLane="0" toLane="0" dir="l" state="M"/>
    <connection from=":Top_4" to="-W_2" fromLane="0" toLane="0" dir="s" state="M"/>
    <connection from=":Top_5" to="-N_2" fromLane="0" toLane="0" via=":Top_13_0" dir="r" state="m"/>
    <connection from=":Top_13" to="-N_2" fromLane="0" toLane="0" dir="r" state="M"/>
    <connection from=":Top_6" to="-E_2" fromLane="0" toLane="0" dir="l" state="M"/>
    <connection from=":Top_7" to="-S_3" fromLane="0" toLane="0" dir="s" state="M"/>
    <connection from=":Top_8" to="-W_2" fromLane="0" toLane="0" via=":Top_14_0" dir="r" state="m"/>
    <connection from=":Top_14" to="-W_2" fromLane="0" toLane="0" dir="r" state="M"/>
    <connection from=":Top_9" to="-N_2" fromLane="0" toLane="0" dir="l" state="M"/>
    <connection from=":Top_10" to="-E_2" fromLane="0" toLane="0" dir="s" state="M"/>
    <connection from=":Top_11" to="-S_3" fromLane="0" toLane="0" via=":Top_15_0" dir="r" state="m"/>
    <connection from=":Top_15" to="-S_3" fromLane="0" toLane="0" dir="r" state="M"/>
    <connection from=":W_J_1_0" to="-W_1" fromLane="0" toLane="0" dir="s" state="M"/>
    <connection from=":W_J_1_1" to="W_2" fromLane="0" toLane="0" dir="s" state="M"/>

</net>
