<additional>    
    <inductionLoop id="straightIn" lane="St_Const_0" pos="0" length="5" file="result.out.xml"/>
    <inductionLoop id="straightOut" lane="St_Const_0" pos="-5" length="5" file="result.out.xml"/>

    <inductionLoop id="regulationIn" lane="Regu_Const_0" pos="0" length="5" file="result.out.xml"/>
    <inductionLoop id="regulationOut" lane="Regu_Const_0" pos="-5" length="5" file="result.out.xml"/>

    <laneAreaDetector id="SI" lanes="E_In_0 -W_1_0 St_In_0" friendlyPos="false" file="result.out.xml"/>
    <laneAreaDetector id="SO" lanes="St_Out_0 W_1_0 E_Out_0" friendlyPos="false" file="result.out.xml"/>
    <laneAreaDetector id="CS" lanes="St_Const_0" friendlyPos="false" file="result.out.xml"/>

    <laneAreaDetector id="RI" lanes="W_In_0 Regu_In_0" friendlyPos="false" file="result.out.xml"/>
    <laneAreaDetector id="RO" lanes="Regu_Out_0 W_Out_0" friendlyPos="false" file="result.out.xml"/>
    <laneAreaDetector id="CR" lanes="Regu_Const_0" friendlyPos="false" file="result.out.xml"/>
    
</additional>
