<?xml version="1.0" encoding="UTF-8"?>

<routes xmlns:xsi="http://www.w3.org/2001/XMLSchema-instance" xsi:noNamespaceSchemaLocation="http://sumo.dlr.de/xsd/routes_file.xsd">
    <vType id="normal" accel="3" decel="6.5" sigma="0" length="5" minGap="1.5" vClass="passenger" maxSpeed="14" carFollowModel="IDM"/>
    <vType id="large" accel="3" decel="6.5" sigma="0" length="12" minGap="1.5" vClass="truck" maxSpeed="14" carFollowModel="IDM" color="0,0,1"/> <!--青色-->
    <vType id="bus" accel="3" decel="5.5" sigma="0" length="11" minGap="1.5" vClass="bus" maxSpeed="11" carFollowModel="IDM" color="1,0,0"/> <!--赤色-->
    
    <flow id="EtoW_normal" type="normal" from="E_1" to="-W_1" begin="0" end="3600" probability="0.14"/>
    <flow id="EtoW_large" type="large" from="E_1" to="-W_1" begin="0" end="3600" probability="0.0014"/>
    <flow id="EtoW_bus" type="bus" from="E_1" to="-W_1" begin="0" end="3600" probability="0.014"/>

    <flow id="EtoS_normal" type="normal" from="E_1" to="-S_1" begin="0" end="3600" probability="0.008"/>
    <!-- <flow id="EtoS_large" type="large" from="E_1" to="-S_1" begin="0" end="3600" probability="0"/> -->
    <flow id="EtoS_bus" type="bus" from="E_1" to="-S_1" begin="0" end="3600" probability="0.0008"/>

    <flow id="EtoN_normal" type="normal" from="E_1" to="-N_1" begin="0" end="3600" probability="0.007"/>
    <!-- <flow id="EtoN_large" type="large" from="E_1" to="-N_1" begin="0" end="3600" probability="0"/> -->
    <flow id="EtoN_bus" type="bus" from="E_1" to="-N_1" begin="0" end="3600" probability="0.0008"/>

    <flow id="WtoE_normal" type="normal" from="W_1" to="-E_1" begin="0" end="3600" probability="0.185"/>
    <flow id="WtoE_large" type="large" from="W_1" to="-E_1" begin="0" end="3600" probability="0.002"/>
    <flow id="WtoE_bus" type="bus" from="W_1" to="-E_1" begin="0" end="3600" probability="0.019"/>

    <flow id="WtoS_normal" type="normal" from="W_1" to="-S_1" begin="0" end="3600" probability="0.009"/>
    <!-- <flow id="WtoS_large" type="large" from="W_1" to="-S_1" begin="0" end="3600" probability="0.0025"/> -->
    <flow id="WtoS_bus" type="bus" from="W_1" to="-S_1" begin="0" end="3600" probability="0.0008"/>

    <flow id="WtoN_normal" type="normal" from="W_1" to="-N_1" begin="0" end="3600" probability="0.035"/>
    <flow id="WtoN_large" type="large" from="W_1" to="-N_1" begin="0" end="3600" probability="0.0002"/>
    <flow id="WtoN_bus" type="bus" from="W_1" to="-N_1" begin="0" end="3600" probability="0.003"/>

    <flow id="StoE_normal" type="normal" from="S_1" to="-E_1" begin="0" end="3600" probability="0.009"/>
    <!-- <flow id="StoE_large" type="large" from="S_1" to="-E_1" begin="0" end="3600" probability="0.00025"/> -->
    <flow id="StoE_bus" type="bus" from="S_1" to="-E_1" begin="0" end="3600" probability="0.0008"/>

    <flow id="StoW_normal" type="normal" from="S_1" to="-W_1" begin="0" end="3600" probability="0.0078"/>
    <!-- <flow id="StoW_large" type="large" from="S_1" to="-W_1" begin="0" end="3600" probability="0.0005"/> -->
    <flow id="StoW_bus" type="bus" from="S_1" to="-W_1" begin="0" end="3600" probability="0.0005"/>

    <flow id="StoN_normal" type="normal" from="S_1" to="-N_1" begin="0" end="3600" probability="0.022"/>
    <!-- <flow id="StoN_large" type="large" from="S_1" to="-N_1" begin="0" end="3600" probability="0.001"/> -->
    <flow id="StoN_bus" type="bus" from="S_1" to="-N_1" begin="0" end="3600" probability="0.0025"/>

    <flow id="NtoE_normal" type="normal" from="N_1" to="-E_1" begin="0" end="3600" probability="0.01"/>
    <!-- <flow id="NtoE_large" type="large" from="N_1" to="-E_1" begin="0" end="3600" probability="0.00025"/> -->
    <flow id="NtoE_bus" type="bus" from="N_1" to="-E_1" begin="0" end="3600" probability="0.001"/>

    <flow id="NtoW_normal" type="normal" from="N_1" to="-W_1" begin="0" end="3600" probability="0.009"/>
    <!-- <flow id="NtoW_large" type="large" from="N_1" to="-W_1" begin="0" end="3600" probability="0.0005"/> -->
    <flow id="NtoW_bus" type="bus" from="N_1" to="-W_1" begin="0" end="3600" probability="0.0005"/>

    <flow id="NtoS_normal" type="normal" from="N_1" to="-S_1" begin="0" end="3600" probability="0.02"/>
    <!-- <flow id="NtoS_large" type="large" from="N_1" to="-S_1" begin="0" end="3600" probability="0.001"/> -->
    <flow id="NtoS_bus" type="bus" from="N_1" to="-S_1" begin="0" end="3600" probability="0.002"/>

<!-- 
    <flow id="TE1" type="normal" from="E_1" to="TW" begin="0" end="3600" number="111"/>
    <flow id="TE2" type="bus" from="E_1" to="TW" begin="0" end="3600" number="3"/>
    <flow id="TE3" type="large" from="E_1" to="TW" begin="0" end="3600" number="9"/>

    <flow id="TE4" type="normal" from="E_1" to="B" begin="0" end="3600" number="74"/>
    <flow id="TE5" type="bus" from="E_1" to="B" begin="0" end="3600" number="2"/>
    <flow id="TE6" type="large" from="E_1" to="B" begin="0" end="3600" number="6"/>

    <flow id="TW1" type="normal" from="-TW" to="TE" begin="0" end="3600" number="175"/>
    <flow id="TW2" type="bus" from="-TW" to="TE" begin="0" end="3600" number="4"/>
    <flow id="TW3" type="large" from="-TW" to="TE" begin="0" end="3600" number="9"/>

    <flow id="TW4" type="normal" from="-TW" to="B" begin="0" end="3600" number="75"/>
    <flow id="TW5" type="bus" from="-TW" to="B" begin="0" end="3600" number="2"/>
    <flow id="TW6" type="large" from="-TW" to="B" begin="0" end="3600" number="4"/>

    <flow id="B1" type="normal" from="-B" to="TE" begin="0" end="3600" number="62"/>
    <flow id="B2" type="bus" from="-B" to="TE" begin="0" end="3600" number="2"/>
    <flow id="B3" type="large" from="-B" to="TE" begin="0" end="3600" number="2"/>

    <flow id="B4" type="normal" from="-B" to="TW" begin="0" end="3600" number="64"/>
    <flow id="B5" type="bus" from="-B" to="TW" begin="0" end="3600" number="2"/>
    <flow id="B6" type="large" from="-B" to="TW" begin="0" end="3600" number="2"/> -->

</routes>
