<?xml version="1.0" encoding="UTF-8"?>

<routes xmlns:xsi="http://www.w3.org/2001/XMLSchema-instance" xsi:noNamespaceSchemaLocation="http://sumo.dlr.de/xsd/routes_file.xsd">
    <vType id="normal" accel="3" decel="6.5" sigma="0" length="5" minGap="2.5" vClass="passenger" maxSpeed="14"/>
    <vType id="bus" accel="3" decel="5.5" sigma="0" length="11" minGap="3" vClass="bus" maxSpeed="11" color="1,0,0"/> <!--赤色-->
    <vType id="large" accel="3" decel="6.5" sigma="0" length="12" minGap="2.5" vClass="truck" maxSpeed="14" color="0,0,1"/> <!--青色-->
    
    <flow id="TE1" type="normal" from="-TE" to="TW" begin="0" end="3600" probability="0.06"/>
    <flow id="TE2" type="bus" from="-TE" to="TW" begin="0" end="3600" probability="0.0016"/>
    <flow id="TE3" type="large" from="-TE" to="TW" begin="0" end="3600" probability="0.005"/>

    <flow id="TE4" type="normal" from="-TE" to="E5" begin="0" end="3600" probability="0.005"/>
    <flow id="TE5" type="bus" from="-TE" to="E5" begin="0" end="3600" probability="0.000125"/>
    <flow id="TE6" type="large" from="-TE" to="E5" begin="0" end="3600" probability="0.0004"/>

    <flow id="TE10" type="normal" from="-TE" to="E6" begin="0" end="3600" probability="0.01"/>
    <flow id="TE11" type="bus" from="-TE" to="E6" begin="0" end="3600" probability="0.00025"/>
    <flow id="TE12" type="large" from="-TE" to="E6" begin="0" end="3600" probability="0.0008"/>

    <flow id="TE13" type="normal" from="-TE" to="E7" begin="0" end="3600" probability="0.005"/>
    <flow id="TE14" type="bus" from="-TE" to="E7" begin="0" end="3600" probability="0.000125"/>
    <flow id="TE15" type="large" from="-TE" to="E7" begin="0" end="3600" probability="0.0004"/>

    <flow id="TE7" type="normal" from="-TE" to="E4" begin="0" end="3600" probability="0.02"/>
    <flow id="TE8" type="bus" from="-TE" to="E4" begin="0" end="3600" probability="0.0005"/>
    <flow id="TE9" type="large" from="-TE" to="E4" begin="0" end="3600" probability="0.0016"/>

    <flow id="TW1" type="normal" from="-TW" to="TE" begin="0" end="3600" probability="0.1"/>
    <flow id="TW2" type="bus" from="-TW" to="TE" begin="0" end="3600" probability="0.002"/>
    <flow id="TW3" type="large" from="-TW" to="TE" begin="0" end="3600" probability="0.005"/>

    <flow id="TW4" type="normal" from="-TW" to="E5" begin="0" end="3600" probability="0.005"/>
    <flow id="TW5" type="bus" from="-TW" to="E5" begin="0" end="3600" probability="0.00125"/>
    <flow id="TW6" type="large" from="-TW" to="E5" begin="0" end="3600" probability="0.0025"/>

    <flow id="TW10" type="normal" from="-TW" to="E6" begin="0" end="3600" probability="0.01"/>
    <flow id="TW11" type="bus" from="-TW" to="E6" begin="0" end="3600" probability="0.0025"/>
    <flow id="TW12" type="large" from="-TW" to="E6" begin="0" end="3600" probability="0.005"/>

    <flow id="TW13" type="normal" from="-TW" to="E7" begin="0" end="3600" probability="0.005"/>
    <flow id="TW14" type="bus" from="-TW" to="E7" begin="0" end="3600" probability="0.00125"/>
    <flow id="TW15" type="large" from="-TW" to="E7" begin="0" end="3600" probability="0.005"/>

    <flow id="TW7" type="normal" from="-TW" to="E4" begin="0" end="3600" probability="0.02"/>
    <flow id="TW8" type="bus" from="-TW" to="E4" begin="0" end="3600" probability="0.005"/>
    <flow id="TW9" type="large" from="-TW" to="E4" begin="0" end="3600" probability="0.01"/>

    <flow id="E41" type="normal" from="-E4" to="TE" begin="0" end="3600" probability="0.017"/>
    <flow id="E42" type="bus" from="-E4" to="TE" begin="0" end="3600" probability="0.0005"/>
    <flow id="E43" type="large" from="-E4" to="TE" begin="0" end="3600" probability="0.0005"/>

    <flow id="E44" type="normal" from="-E4" to="TW" begin="0" end="3600" probability="0.017"/>
    <flow id="E45" type="bus" from="-E4" to="TW" begin="0" end="3600" probability="0.0005"/>
    <flow id="E46" type="large" from="-E4" to="TW" begin="0" end="3600" probability="0.0005"/>
    
    <flow id="E47" type="normal" from="-E4" to="E5" begin="0" end="3600" probability="0.01"/>
    <flow id="E48" type="bus" from="-E4" to="E5" begin="0" end="3600" probability="0.00025"/>
    <flow id="E49" type="large" from="-E4" to="E5" begin="0" end="3600" probability="0.00025"/>
    
    <flow id="E410" type="normal" from="-E4" to="E6" begin="0" end="3600" probability="0.02"/>
    <flow id="E411" type="bus" from="-E4" to="E6" begin="0" end="3600" probability="0.0005"/>
    <flow id="E412" type="large" from="-E4" to="E6" begin="0" end="3600" probability="0.0005"/>
    
    <flow id="E413" type="normal" from="-E4" to="E7" begin="0" end="3600" probability="0.01"/>
    <flow id="E414" type="bus" from="-E4" to="E7" begin="0" end="3600" probability="0.00025"/>
    <flow id="E415" type="large" from="-E4" to="E7" begin="0" end="3600" probability="0.00025"/>

    <flow id="E51" type="normal" from="-E5" to="E6" begin="0" end="3600" probability="0.017"/>
    <flow id="E52" type="bus" from="-E5" to="E6" begin="0" end="3600" probability="0.0005"/>
    <flow id="E53" type="large" from="-E5" to="E6" begin="0" end="3600" probability="0.0005"/>

    <flow id="E54" type="normal" from="-E5" to="E7" begin="0" end="3600" probability="0.085"/>
    <flow id="E55" type="bus" from="-E5" to="E7" begin="0" end="3600" probability="0.002"/>
    <flow id="E56" type="large" from="-E5" to="E7" begin="0" end="3600" probability="0.00025"/>

    <flow id="E57" type="normal" from="-E5" to="TE" begin="0" end="3600" probability="0.00425"/>
    <flow id="E58" type="bus" from="-E5" to="TE" begin="0" end="3600" probability="0.000125"/>
    <flow id="E59" type="large" from="-E5" to="TE" begin="0" end="3600" probability="0.0005"/>

    <flow id="E510" type="normal" from="-E5" to="TW" begin="0" end="3600" probability="0.00425"/>
    <flow id="E511" type="bus" from="-E5" to="TW" begin="0" end="3600" probability="0.000125"/>
    <flow id="E512" type="large" from="-E5" to="TW" begin="0" end="3600" probability="0.0005"/>

    <flow id="E513" type="normal" from="-E5" to="E4" begin="0" end="3600" probability="0.0085"/>
    <flow id="E514" type="bus" from="-E5" to="E4" begin="0" end="3600" probability="0.00025"/>
    <flow id="E515" type="large" from="-E5" to="E4" begin="0" end="3600" probability="0.00012"/>

    <flow id="E61" type="normal" from="-E6" to="E5" begin="0" end="3600" probability="0.015"/>
    <flow id="E62" type="bus" from="-E6" to="E5" begin="0" end="3600" probability="0.0005"/>
    <flow id="E63" type="large" from="-E6" to="E5" begin="0" end="3600" probability="0.0005"/>

    <flow id="E64" type="normal" from="-E6" to="E7" begin="0" end="3600" probability="0.015"/>
    <flow id="E65" type="bus" from="-E6" to="E7" begin="0" end="3600" probability="0.0005"/>
    <flow id="E66" type="large" from="-E6" to="E7" begin="0" end="3600" probability="0.0005"/>

    <flow id="E67" type="normal" from="-E6" to="TE" begin="0" end="3600" probability="0.00875"/>
    <flow id="E68" type="bus" from="-E6" to="TE" begin="0" end="3600" probability="0.00025"/>
    <flow id="E69" type="large" from="-E6" to="TE" begin="0" end="3600" probability="0.0005"/>

    <flow id="E610" type="normal" from="-E6" to="TW" begin="0" end="3600" probability="0.00875"/>
    <flow id="E611" type="bus" from="-E6" to="TW" begin="0" end="3600" probability="0.00025"/>
    <flow id="E612" type="large" from="-E6" to="TW" begin="0" end="3600" probability="0.0005"/>

    <flow id="E613" type="normal" from="-E6" to="E4" begin="0" end="3600" probability="0.0175"/>
    <flow id="E614" type="bus" from="-E6" to="E4" begin="0" end="3600" probability="0.0005"/>
    <flow id="E615" type="large" from="-E6" to="E4" begin="0" end="3600" probability="0.00008"/>

    <flow id="E71" type="normal" from="-E7" to="E5" begin="0" end="3600" probability="0.05"/>
    <flow id="E72" type="bus" from="-E7" to="E5" begin="0" end="3600" probability="0.003"/>
    <flow id="E73" type="large" from="-E7" to="E5" begin="0" end="3600" probability="0.003"/>

    <flow id="E74" type="normal" from="-E7" to="E6" begin="0" end="3600" probability="0.017"/>
    <flow id="E75" type="bus" from="-E7" to="E6" begin="0" end="3600" probability="0.001"/>
    <flow id="E76" type="large" from="-E7" to="E6" begin="0" end="3600" probability="0.001"/>

    <flow id="E77" type="normal" from="-E7" to="TE" begin="0" end="3600" probability="0.00425"/>
    <flow id="E78" type="bus" from="-E7" to="TE" begin="0" end="3600" probability="0.000125"/>
    <flow id="E79" type="large" from="-E7" to="TE" begin="0" end="3600" probability="0.0005"/>

    <flow id="E710" type="normal" from="-E7" to="TW" begin="0" end="3600" probability="0.00425"/>
    <flow id="E711" type="bus" from="-E7" to="TW" begin="0" end="3600" probability="0.000125"/>
    <flow id="E712" type="large" from="-E7" to="TW" begin="0" end="3600" probability="0.0005"/>

    <flow id="E713" type="normal" from="-E7" to="E4" begin="0" end="3600" probability="0.0085"/>
    <flow id="E714" type="bus" from="-E7" to="E4" begin="0" end="3600" probability="0.00025"/>
    <flow id="E715" type="large" from="-E7" to="E4" begin="0" end="3600" probability="0.0008"/>
<!-- 
    <flow id="B7" type="normal" from="-B" to="E4" begin="0" end="3600" probability="0.035"/>
    <flow id="B8" type="bus" from="-B" to="E4" begin="0" end="3600" probability="0.001"/>
    <flow id="B9" type="large" from="-B" to="E4" begin="0" end="3600" probability="0.001"/>

    <flow id="B10" type="normal" from="-B" to="TE" begin="0" end="3600" probability="0.017"/>
    <flow id="B11" type="bus" from="-B" to="TE" begin="0" end="3600" probability="0.0005"/>
    <flow id="B12" type="large" from="-B" to="TE" begin="0" end="3600" probability="0.0005"/>

    <flow id="B13" type="normal" from="-B" to="TW" begin="0" end="3600" probability="0.017"/>
    <flow id="B14" type="bus" from="-B" to="TW" begin="0" end="3600" probability="0.0005"/>
    <flow id="B15" type="large" from="-B" to="TW" begin="0" end="3600" probability="0.0005"/>         -->
<!-- 
    <flow id="TE1" type="normal" from="-TE" to="TW" begin="0" end="3600" number="111"/>
    <flow id="TE2" type="bus" from="-TE" to="TW" begin="0" end="3600" number="3"/>1250
    <flow id="TE3" type="large" from="-TE" to="TW" begin="0" end="3600" number="9"/>266(0.74)

    <flow id="TE4" type="normal" from="-TE" to="B" begin="0" end="3600" number="74"/>
    <flow id="TE5" type="bus" from="-TE" to="B" begin="0" end="3600" number="2"/>
    <flow id="TE6" type="large" from="-TE" to="B" begin="0" end="3600" number="6"/>

    <flow id="TW1" type="normal" from="-TW" to="TE" begin="0" end="3600" number="175"/>
    <flow id="TW2" type="bus" from="-TW" to="TE" begin="0" end="3600" number="4"/>
    <flow id="TW3" type="large" from="-TW" to="TE" begin="0" end="3600" number="9"/>

    <flow id="TW4" type="normal" from="-TW" to="B" begin="0" end="3600" number="75"/>
    <flow id="TW5" type="bus" from="-TW" to="B" begin="0" end="3600" number="2"/>
    <flow id="TW6" type="large" from="-TW" to="B" begin="0" end="3600" number="4"/>

    <flow id="B1" type="normal" from="-B" to="TE" begin="0" end="3600" number="62"/>
    <flow id="B2" type="bus" from="-B" to="TE" begin="0" end="3600" number="2"/>
    <flow id="B3" type="large" from="-B" to="TE" begin="0" end="3600" number="2"/>

    <flow id="B4" type="normal" from="-B" to="TW" begin="0" end="3600" number="64"/>
    <flow id="B5" type="bus" from="-B" to="TW" begin="0" end="3600" number="2"/>
    <flow id="B6" type="large" from="-B" to="TW" begin="0" end="3600" number="2"/> -->

</routes>
