<?xml version="1.0" encoding="UTF-8"?>

<!-- generated on 2023-10-12 03:06:20 by Eclipse SUMO netedit Version 1.17.0
<configuration xmlns:xsi="http://www.w3.org/2001/XMLSchema-instance" xsi:noNamespaceSchemaLocation="http://sumo.dlr.de/xsd/netconvertConfiguration.xsd">

    <input>
        <sumo-net-file value="/home/traffic/SUMO_SCENARIO/kamirenjaku_inside_signal_04/scenario_3/../settings/const_80.net.xml"/>
    </input>

    <output>
        <output-file value="/home/traffic/SUMO_SCENARIO/kamirenjaku_inside_signal_04/scenario_3/../settings/const_80.net.xml"/>
    </output>

    <processing>
        <geometry.min-radius.fix.railways value="false"/>
        <geometry.max-grade.fix value="false"/>
        <offset.disable-normalization value="true"/>
        <lefthand value="1"/>
    </processing>

    <junctions>
        <no-turnarounds value="true"/>
        <junctions.corner-detail value="5"/>
        <junctions.limit-turn-speed value="5.50"/>
        <rectangular-lane-cut value="0"/>
    </junctions>

    <pedestrian>
        <walkingareas value="0"/>
    </pedestrian>

</configuration>
-->

<net version="1.16" junctionCornerDetail="5" lefthand="true" limitTurnSpeed="5.50" xmlns:xsi="http://www.w3.org/2001/XMLSchema-instance" xsi:noNamespaceSchemaLocation="http://sumo.dlr.de/xsd/net_file.xsd">

    <location netOffset="0.00,0.00" convBoundary="-85.00,-15.80,326.20,184.20" origBoundary="-10000000000.00,-10000000000.00,10000000000.00,10000000000.00" projParameter="!"/>

    <edge id=":Branch_J_0" function="internal">
        <lane id=":Branch_J_0_0" index="0" speed="6.51" length="9.03" shape="113.60,77.00 113.25,79.45 112.20,81.20 110.45,82.25 108.00,82.60"/>
    </edge>
    <edge id=":Branch_J_1" function="internal">
        <lane id=":Branch_J_1_0" index="0" speed="7.30" length="11.65" shape="113.60,77.00 114.15,79.40 115.80,81.12 118.55,82.15 122.40,82.49"/>
    </edge>
    <edge id=":Branch_J_2" function="internal">
        <lane id=":Branch_J_2_0" index="0" speed="6.51" length="9.03" shape="122.40,82.60 119.95,82.25 118.20,81.20 117.15,79.45 116.80,77.00"/>
    </edge>
    <edge id=":Branch_J_3" function="internal">
        <lane id=":Branch_J_3_0" index="0" speed="13.89" length="14.40" shape="122.40,82.60 108.00,82.60"/>
    </edge>
    <edge id=":Branch_J_4" function="internal">
        <lane id=":Branch_J_4_0" index="0" speed="13.89" length="14.40" shape="108.00,82.57 122.40,82.49"/>
    </edge>
    <edge id=":Branch_J_5" function="internal">
        <lane id=":Branch_J_5_0" index="0" speed="7.32" length="4.69" shape="108.00,82.57 111.85,82.22 112.62,81.93"/>
    </edge>
    <edge id=":Branch_J_6" function="internal">
        <lane id=":Branch_J_6_0" index="0" speed="7.32" length="7.01" shape="112.62,81.93 114.60,81.18 116.25,79.44 116.80,77.00"/>
    </edge>
    <edge id=":E_J_0" function="internal">
        <lane id=":E_J_0_0" index="0" speed="6.51" length="9.03" shape="210.60,77.00 210.25,79.45 209.20,81.20 207.45,82.25 205.00,82.60"/>
    </edge>
    <edge id=":E_J_1" function="internal">
        <lane id=":E_J_1_0" index="0" speed="8.00" length="14.19" shape="210.60,77.00 211.15,80.85 212.80,83.60 215.55,85.25 219.40,85.80"/>
    </edge>
    <edge id=":E_J_2" function="internal">
        <lane id=":E_J_2_0" index="0" speed="6.51" length="9.03" shape="219.40,82.60 216.95,82.25 215.20,81.20 214.15,79.45 213.80,77.00"/>
    </edge>
    <edge id=":E_J_3" function="internal">
        <lane id=":E_J_3_0" index="0" speed="13.89" length="14.40" shape="219.40,82.60 205.00,82.60"/>
    </edge>
    <edge id=":E_J_4" function="internal">
        <lane id=":E_J_4_0" index="0" speed="13.89" length="14.40" shape="205.00,85.80 219.40,85.80"/>
    </edge>
    <edge id=":E_J_5" function="internal">
        <lane id=":E_J_5_0" index="0" speed="8.00" length="4.07" shape="205.00,85.80 208.85,85.25 209.00,85.16"/>
    </edge>
    <edge id=":E_J_6" function="internal">
        <lane id=":E_J_6_0" index="0" speed="8.00" length="10.13" shape="209.00,85.16 211.60,83.60 213.25,80.85 213.80,77.00"/>
    </edge>
    <edge id=":Regu_0" function="internal">
        <lane id=":Regu_0_0" index="0" speed="13.89" length="0.10" shape="75.20,82.60 75.25,82.60"/>
    </edge>
    <edge id=":Regu_1" function="internal">
        <lane id=":Regu_1_0" index="0" speed="13.89" length="0.10" shape="75.26,82.48 75.24,82.57"/>
    </edge>
    <edge id=":Regu_stop_0" function="internal">
        <lane id=":Regu_stop_0_0" index="0" speed="13.89" length="0.10" shape="65.77,82.60 65.70,82.60"/>
    </edge>
    <edge id=":Regu_stop_1" function="internal">
        <lane id=":Regu_stop_1_0" index="0" speed="13.89" length="0.19" shape="65.75,85.80 65.77,85.61"/>
    </edge>
    <edge id=":St_0" function="internal">
        <lane id=":St_0_0" index="0" speed="13.89" length="0.20" shape="155.20,82.60 155.00,82.60"/>
    </edge>
    <edge id=":St_1" function="internal">
        <lane id=":St_1_0" index="0" speed="13.89" length="0.26" shape="155.00,82.49 155.08,82.49 155.13,82.49 155.18,82.50 155.26,82.51"/>
    </edge>
    <edge id=":St_stop_0" function="internal">
        <lane id=":St_stop_0_0" index="0" speed="13.89" length="0.10" shape="175.59,82.60 175.52,82.60"/>
    </edge>
    <edge id=":St_stop_1" function="internal">
        <lane id=":St_stop_1_0" index="0" speed="13.89" length="0.10" shape="175.50,85.85 175.53,85.80"/>
    </edge>
    <edge id=":W_J_0" function="internal">
        <lane id=":W_J_0_0" index="0" speed="13.89" length="14.40" shape="22.20,82.60 7.80,82.60"/>
    </edge>
    <edge id=":W_J_1" function="internal">
        <lane id=":W_J_1_0" index="0" speed="8.00" length="4.07" shape="22.20,82.60 18.35,83.15 18.20,83.24"/>
    </edge>
    <edge id=":W_J_6" function="internal">
        <lane id=":W_J_6_0" index="0" speed="8.00" length="10.13" shape="18.20,83.24 15.60,84.80 13.95,87.55 13.40,91.40"/>
    </edge>
    <edge id=":W_J_2" function="internal">
        <lane id=":W_J_2_0" index="0" speed="6.51" length="9.03" shape="16.60,91.40 16.95,88.95 18.00,87.20 19.75,86.15 22.20,85.80"/>
    </edge>
    <edge id=":W_J_3" function="internal">
        <lane id=":W_J_3_0" index="0" speed="8.00" length="14.19" shape="16.60,91.40 16.05,87.55 14.40,84.80 11.65,83.15 7.80,82.60"/>
    </edge>
    <edge id=":W_J_4" function="internal">
        <lane id=":W_J_4_0" index="0" speed="6.51" length="9.03" shape="7.80,85.80 10.25,86.15 12.00,87.20 13.05,88.95 13.40,91.40"/>
    </edge>
    <edge id=":W_J_5" function="internal">
        <lane id=":W_J_5_0" index="0" speed="13.89" length="14.40" shape="7.80,85.80 22.20,85.80"/>
    </edge>
    <edge id=":hos_J_0" function="internal">
        <lane id=":hos_J_0_0" index="0" speed="13.89" length="14.40" shape="-27.80,82.60 -42.20,82.60"/>
    </edge>
    <edge id=":hos_J_1" function="internal">
        <lane id=":hos_J_1_0" index="0" speed="8.00" length="4.07" shape="-27.80,82.60 -31.65,83.15 -31.80,83.24"/>
    </edge>
    <edge id=":hos_J_6" function="internal">
        <lane id=":hos_J_6_0" index="0" speed="8.00" length="10.13" shape="-31.80,83.24 -34.40,84.80 -36.05,87.55 -36.60,91.40"/>
    </edge>
    <edge id=":hos_J_2" function="internal">
        <lane id=":hos_J_2_0" index="0" speed="6.51" length="9.03" shape="-33.40,91.40 -33.05,88.95 -32.00,87.20 -30.25,86.15 -27.80,85.80"/>
    </edge>
    <edge id=":hos_J_3" function="internal">
        <lane id=":hos_J_3_0" index="0" speed="8.00" length="14.19" shape="-33.40,91.40 -33.95,87.55 -35.60,84.80 -38.35,83.15 -42.20,82.60"/>
    </edge>
    <edge id=":hos_J_4" function="internal">
        <lane id=":hos_J_4_0" index="0" speed="6.51" length="9.03" shape="-42.20,85.80 -39.75,86.15 -38.00,87.20 -36.95,88.95 -36.60,91.40"/>
    </edge>
    <edge id=":hos_J_5" function="internal">
        <lane id=":hos_J_5_0" index="0" speed="13.89" length="14.40" shape="-42.20,85.80 -27.80,85.80"/>
    </edge>

    <edge id="-E_1" from="St_stop" to="E_J" priority="-1">
        <lane id="-E_1_0" index="0" speed="13.89" length="29.47" shape="175.53,85.80 205.00,85.80"/>
    </edge>
    <edge id="-W_1" from="W_J" to="hos_J" priority="-1">
        <lane id="-W_1_0" index="0" speed="13.89" length="35.60" shape="7.80,82.60 -27.80,82.60"/>
    </edge>
    <edge id="-W_2" from="Regu_stop" to="W_J" priority="-1">
        <lane id="-W_2_0" index="0" speed="13.89" length="43.50" shape="65.70,82.60 22.20,82.60"/>
    </edge>
    <edge id="Branch_in" from="Branch_0" to="Branch_J" priority="-1">
        <lane id="Branch_in_0" index="0" speed="13.89" length="92.80" shape="113.60,-15.80 113.60,77.00"/>
    </edge>
    <edge id="Branch_out" from="Branch_J" to="Branch_0" priority="-1">
        <lane id="Branch_out_0" index="0" speed="13.89" length="92.80" shape="116.80,77.00 116.80,-15.80"/>
    </edge>
    <edge id="E_1" from="E_J" to="St_stop" priority="-1">
        <lane id="E_1_0" index="0" speed="13.89" length="29.41" shape="205.00,82.60 175.59,82.60"/>
    </edge>
    <edge id="E_in" from="E_0" to="E_J" priority="-1">
        <lane id="E_in_0" index="0" speed="13.89" length="106.80" shape="326.20,82.60 219.40,82.60"/>
    </edge>
    <edge id="E_out" from="E_J" to="E_0" priority="-1">
        <lane id="E_out_0" index="0" speed="13.89" length="106.80" shape="219.40,85.80 326.20,85.80"/>
    </edge>
    <edge id="Hos_in" from="Hos" to="hos_J" priority="-1">
        <lane id="Hos_in_0" index="0" speed="13.89" length="42.80" shape="-33.40,134.20 -33.40,91.40"/>
    </edge>
    <edge id="Hos_out" from="hos_J" to="Hos" priority="-1">
        <lane id="Hos_out_0" index="0" speed="13.89" length="42.80" shape="-36.60,91.40 -36.60,134.20"/>
    </edge>
    <edge id="N_in" from="N_0" to="W_J" priority="-1">
        <lane id="N_in_0" index="0" speed="13.89" length="92.80" shape="16.60,184.20 16.60,91.40"/>
    </edge>
    <edge id="N_out" from="W_J" to="N_0" priority="-1">
        <lane id="N_out_0" index="0" speed="13.89" length="92.80" shape="13.40,91.40 13.40,184.20"/>
    </edge>
    <edge id="Regu_1" from="Regu" to="Branch_J" priority="-1">
        <lane id="Regu_1_0" index="0" speed="13.89" length="32.76" customShape="1" shape="75.24,82.57 108.00,82.57"/>
    </edge>
    <edge id="Regu_2" from="Branch_J" to="St" priority="-1">
        <lane id="Regu_2_0" index="0" speed="13.89" length="32.60" customShape="1" shape="122.40,82.49 155.00,82.49"/>
    </edge>
    <edge id="Regu_in" from="Regu_stop" to="Regu" priority="-1">
        <lane id="Regu_in_0" index="0" speed="13.89" length="9.99" customShape="1" shape="65.77,85.61 75.26,82.48"/>
    </edge>
    <edge id="Regu_out" from="Regu" to="Regu_stop" priority="-1">
        <lane id="Regu_out_0" index="0" speed="13.89" length="9.48" shape="75.25,82.60 65.77,82.60"/>
    </edge>
    <edge id="S_in" from="S_0" to="E_J" priority="-1">
        <lane id="S_in_0" index="0" speed="13.89" length="92.80" shape="210.60,-15.80 210.60,77.00"/>
    </edge>
    <edge id="S_out" from="E_J" to="S_0" priority="-1">
        <lane id="S_out_0" index="0" speed="13.89" length="92.80" shape="213.80,77.00 213.80,-15.80"/>
    </edge>
    <edge id="St_1" from="St" to="Branch_J" priority="-1">
        <lane id="St_1_0" index="0" speed="13.89" length="32.60" shape="155.00,82.60 122.40,82.60"/>
    </edge>
    <edge id="St_2" from="Branch_J" to="Regu" priority="-1">
        <lane id="St_2_0" index="0" speed="13.89" length="32.80" shape="108.00,82.60 75.20,82.60"/>
    </edge>
    <edge id="St_in" from="St_stop" to="St" priority="-1">
        <lane id="St_in_0" index="0" speed="13.89" length="20.32" shape="175.52,82.60 155.20,82.60"/>
    </edge>
    <edge id="St_out" from="St" to="St_stop" priority="-1">
        <lane id="St_out_0" index="0" speed="13.89" length="20.52" customShape="1" shape="155.26,82.51 175.50,85.85"/>
    </edge>
    <edge id="W_1" from="hos_J" to="W_J" priority="-1">
        <lane id="W_1_0" index="0" speed="13.89" length="35.60" shape="-27.80,85.80 7.80,85.80"/>
    </edge>
    <edge id="W_2" from="W_J" to="Regu_stop" priority="-1">
        <lane id="W_2_0" index="0" speed="13.89" length="43.55" shape="22.20,85.80 65.75,85.80"/>
    </edge>
    <edge id="W_in" from="W_0" to="hos_J" priority="-1">
        <lane id="W_in_0" index="0" speed="13.89" length="42.80" shape="-85.00,85.80 -42.20,85.80"/>
    </edge>
    <edge id="W_out" from="hos_J" to="W_0" priority="-1">
        <lane id="W_out_0" index="0" speed="13.89" length="42.80" shape="-42.20,82.60 -85.00,82.60"/>
    </edge>

    <tlLogic id="Branch_J" type="static" programID="0" offset="0">
        <phase duration="51" state="rrGGGg" name="Green"/>
        <phase duration="3"  state="rryyyy" name="Yellow"/>
        <phase duration="3"  state="rrrrrr" name="Red"/>
        <phase duration="17" state="GGrrrr" name="Red"/>
        <phase duration="3"  state="yyrrrr" name="Red"/>
        <phase duration="3"  state="rrrrrr" name="Red"/>
    </tlLogic>
    <tlLogic id="E_J" type="static" programID="0" offset="0">
        <phase duration="51" state="rrGGGg"/>
        <phase duration="3"  state="rryyyy"/>
        <phase duration="3"  state="rrrrrr"/>
        <phase duration="17" state="GGrrrr"/>
        <phase duration="3"  state="yyrrrr"/>
        <phase duration="3"  state="rrrrrr"/>
    </tlLogic>
    <tlLogic id="RS" type="static" programID="0" offset="0">
        <phase duration="82" state="Gr"/>
    </tlLogic>
    <tlLogic id="SS" type="static" programID="0" offset="0">
        <phase duration="82" state="rG"/>
    </tlLogic>
    <tlLogic id="W_J" type="static" programID="0" offset="0">
        <phase duration="51" state="GgrrGG"/>
        <phase duration="3"  state="yyrryy"/>
        <phase duration="3"  state="rrrrrr"/>
        <phase duration="17" state="rrGGrr"/>
        <phase duration="3"  state="rryyrr"/>
        <phase duration="3"  state="rrrrrr"/>
    </tlLogic>

    <junction id="Branch_0" type="dead_end" x="115.20" y="-15.80" incLanes="Branch_out_0" intLanes="" shape="115.20,-15.80 118.40,-15.80 115.20,-15.80"/>
    <junction id="Branch_J" type="traffic_light" x="115.20" y="84.20" incLanes="Branch_in_0 St_1_0 Regu_1_0" intLanes=":Branch_J_0_0 :Branch_J_1_0 :Branch_J_2_0 :Branch_J_3_0 :Branch_J_4_0 :Branch_J_6_0" shape="112.00,77.00 118.40,77.00 118.84,79.22 119.40,80.00 120.18,80.56 121.18,80.89 122.40,81.00 122.40,84.09 108.00,84.17 108.00,81.00 110.22,80.56 111.00,80.00 111.56,79.22 111.89,78.22">
        <request index="0" response="001000" foes="001000" cont="0"/>
        <request index="1" response="111000" foes="111000" cont="0"/>
        <request index="2" response="000000" foes="100000" cont="0"/>
        <request index="3" response="000000" foes="100011" cont="0"/>
        <request index="4" response="000000" foes="000010" cont="0"/>
        <request index="5" response="001100" foes="001110" cont="1"/>
    </junction>
    <junction id="E_0" type="dead_end" x="326.20" y="84.20" incLanes="E_out_0" intLanes="" shape="326.20,84.20 326.20,87.40 326.20,84.20"/>
    <junction id="E_J" type="traffic_light" x="212.20" y="84.20" incLanes="S_in_0 E_in_0 -E_1_0" intLanes=":E_J_0_0 :E_J_1_0 :E_J_2_0 :E_J_3_0 :E_J_4_0 :E_J_6_0" shape="209.00,77.00 215.40,77.00 215.84,79.22 216.40,80.00 217.18,80.56 218.18,80.89 219.40,81.00 219.40,87.40 205.00,87.40 205.00,81.00 207.22,80.56 208.00,80.00 208.56,79.22 208.89,78.22">
        <request index="0" response="001000" foes="001000" cont="0"/>
        <request index="1" response="111000" foes="111000" cont="0"/>
        <request index="2" response="000000" foes="100000" cont="0"/>
        <request index="3" response="000000" foes="100011" cont="0"/>
        <request index="4" response="000000" foes="000010" cont="0"/>
        <request index="5" response="001100" foes="001110" cont="1"/>
    </junction>
    <junction id="Hos" type="dead_end" x="-35.00" y="134.20" incLanes="Hos_out_0" intLanes="" shape="-35.00,134.20 -38.20,134.20 -35.00,134.20"/>
    <junction id="N_0" type="dead_end" x="15.00" y="184.20" incLanes="N_out_0" intLanes="" shape="15.00,184.20 11.80,184.20 15.00,184.20"/>
    <junction id="Regu" type="priority" x="75.20" y="84.20" incLanes="St_2_0 Regu_in_0" intLanes=":Regu_0_0 :Regu_1_0" shape="75.24,81.00 75.24,84.17 75.25,81.00">
        <request index="0" response="00" foes="00" cont="0"/>
        <request index="1" response="00" foes="00" cont="0"/>
    </junction>
    <junction id="Regu_stop" type="traffic_light" x="65.20" y="84.20" incLanes="Regu_out_0 W_2_0" intLanes=":Regu_stop_0_0 :Regu_stop_1_0" shape="65.77,81.07 65.77,87.41 65.68,81.07" customShape="1">
        <request index="0" response="00" foes="00" cont="0"/>
        <request index="1" response="00" foes="00" cont="0"/>
    </junction>
    <junction id="S_0" type="dead_end" x="212.20" y="-15.80" incLanes="S_out_0" intLanes="" shape="212.20,-15.80 215.40,-15.80 212.20,-15.80"/>
    <junction id="St" type="priority" x="155.20" y="84.20" incLanes="St_in_0 Regu_2_0" intLanes=":St_0_0 :St_1_0" shape="155.51,81.00 155.00,84.09 155.00,81.00">
        <request index="0" response="00" foes="00" cont="0"/>
        <request index="1" response="00" foes="00" cont="0"/>
    </junction>
    <junction id="St_stop" type="traffic_light" x="175.20" y="84.20" incLanes="E_1_0 St_out_0" intLanes=":St_stop_0_0 :St_stop_1_0" shape="175.62,80.80 175.49,87.86 175.53,81.00" customShape="1">
        <request index="0" response="00" foes="00" cont="0"/>
        <request index="1" response="00" foes="00" cont="0"/>
    </junction>
    <junction id="W_0" type="dead_end" x="-85.00" y="84.20" incLanes="W_out_0" intLanes="" shape="-85.00,84.20 -85.00,81.00 -85.00,84.20"/>
    <junction id="W_J" type="traffic_light" x="15.00" y="84.20" incLanes="-W_2_0 N_in_0 W_1_0" intLanes=":W_J_0_0 :W_J_6_0 :W_J_2_0 :W_J_3_0 :W_J_4_0 :W_J_5_0" shape="22.20,81.00 22.20,87.40 19.98,87.84 19.20,88.40 18.64,89.18 18.31,90.18 18.20,91.40 11.80,91.40 11.36,89.18 10.80,88.40 10.02,87.84 9.02,87.51 7.80,87.40 7.80,81.00">
        <request index="0" response="000000" foes="001000" cont="0"/>
        <request index="1" response="110000" foes="111000" cont="1"/>
        <request index="2" response="100000" foes="100000" cont="0"/>
        <request index="3" response="100011" foes="100011" cont="0"/>
        <request index="4" response="000000" foes="000010" cont="0"/>
        <request index="5" response="000000" foes="001110" cont="0"/>
    </junction>
    <junction id="hos_J" type="priority" x="-35.00" y="84.20" incLanes="-W_1_0 Hos_in_0 W_in_0" intLanes=":hos_J_0_0 :hos_J_6_0 :hos_J_2_0 :hos_J_3_0 :hos_J_4_0 :hos_J_5_0" shape="-27.80,81.00 -27.80,87.40 -30.02,87.84 -30.80,88.40 -31.36,89.18 -31.69,90.18 -31.80,91.40 -38.20,91.40 -38.64,89.18 -39.20,88.40 -39.98,87.84 -40.98,87.51 -42.20,87.40 -42.20,81.00">
        <request index="0" response="000000" foes="001000" cont="0"/>
        <request index="1" response="110000" foes="111000" cont="1"/>
        <request index="2" response="100000" foes="100000" cont="0"/>
        <request index="3" response="100011" foes="100011" cont="0"/>
        <request index="4" response="000000" foes="000010" cont="0"/>
        <request index="5" response="000000" foes="001110" cont="0"/>
    </junction>

    <junction id=":Branch_J_6_0" type="internal" x="112.62" y="81.93" incLanes=":Branch_J_5_0 St_1_0" intLanes=":Branch_J_1_0 :Branch_J_2_0 :Branch_J_3_0"/>
    <junction id=":E_J_6_0" type="internal" x="209.00" y="85.16" incLanes=":E_J_5_0 E_in_0" intLanes=":E_J_1_0 :E_J_2_0 :E_J_3_0"/>
    <junction id=":W_J_6_0" type="internal" x="18.20" y="83.24" incLanes=":W_J_1_0 W_1_0" intLanes=":W_J_3_0 :W_J_4_0 :W_J_5_0"/>
    <junction id=":hos_J_6_0" type="internal" x="-31.80" y="83.24" incLanes=":hos_J_1_0 W_in_0" intLanes=":hos_J_3_0 :hos_J_4_0 :hos_J_5_0"/>

    <connection from="-E_1" to="E_out" fromLane="0" toLane="0" via=":E_J_4_0" tl="E_J" linkIndex="4" dir="s" state="O"/>
    <connection from="-E_1" to="S_out" fromLane="0" toLane="0" via=":E_J_5_0" tl="E_J" linkIndex="5" dir="r" state="o"/>
    <connection from="-W_1" to="W_out" fromLane="0" toLane="0" via=":hos_J_0_0" dir="s" state="M"/>
    <connection from="-W_1" to="Hos_out" fromLane="0" toLane="0" via=":hos_J_1_0" dir="r" state="m"/>
    <connection from="-W_2" to="-W_1" fromLane="0" toLane="0" via=":W_J_0_0" tl="W_J" linkIndex="0" dir="s" state="O"/>
    <connection from="-W_2" to="N_out" fromLane="0" toLane="0" via=":W_J_1_0" tl="W_J" linkIndex="1" dir="r" state="o"/>
    <connection from="Branch_in" to="St_2" fromLane="0" toLane="0" via=":Branch_J_0_0" tl="Branch_J" linkIndex="0" dir="l" state="o"/>
    <connection from="Branch_in" to="Regu_2" fromLane="0" toLane="0" via=":Branch_J_1_0" tl="Branch_J" linkIndex="1" dir="r" state="o"/>
    <connection from="E_1" to="St_in" fromLane="0" toLane="0" via=":St_stop_0_0" tl="SS" linkIndex="0" dir="s" state="O"/>
    <connection from="E_in" to="S_out" fromLane="0" toLane="0" via=":E_J_2_0" tl="E_J" linkIndex="2" dir="l" state="O"/>
    <connection from="E_in" to="E_1" fromLane="0" toLane="0" via=":E_J_3_0" tl="E_J" linkIndex="3" dir="s" state="O"/>
    <connection from="Hos_in" to="W_1" fromLane="0" toLane="0" via=":hos_J_2_0" dir="l" state="m"/>
    <connection from="Hos_in" to="W_out" fromLane="0" toLane="0" via=":hos_J_3_0" dir="r" state="m"/>
    <connection from="N_in" to="W_2" fromLane="0" toLane="0" via=":W_J_2_0" tl="W_J" linkIndex="2" dir="l" state="o"/>
    <connection from="N_in" to="-W_1" fromLane="0" toLane="0" via=":W_J_3_0" tl="W_J" linkIndex="3" dir="r" state="o"/>
    <connection from="Regu_1" to="Regu_2" fromLane="0" toLane="0" via=":Branch_J_4_0" tl="Branch_J" linkIndex="4" dir="s" state="O"/>
    <connection from="Regu_1" to="Branch_out" fromLane="0" toLane="0" via=":Branch_J_5_0" tl="Branch_J" linkIndex="5" dir="r" state="o"/>
    <connection from="Regu_2" to="St_out" fromLane="0" toLane="0" via=":St_1_0" dir="s" state="M"/>
    <connection from="Regu_in" to="Regu_1" fromLane="0" toLane="0" via=":Regu_1_0" dir="s" state="M"/>
    <connection from="Regu_out" to="-W_2" fromLane="0" toLane="0" via=":Regu_stop_0_0" tl="RS" linkIndex="0" dir="s" state="O"/>
    <connection from="S_in" to="E_1" fromLane="0" toLane="0" via=":E_J_0_0" tl="E_J" linkIndex="0" dir="l" state="o"/>
    <connection from="S_in" to="E_out" fromLane="0" toLane="0" via=":E_J_1_0" tl="E_J" linkIndex="1" dir="r" state="o"/>
    <connection from="St_1" to="Branch_out" fromLane="0" toLane="0" via=":Branch_J_2_0" tl="Branch_J" linkIndex="2" dir="l" state="O"/>
    <connection from="St_1" to="St_2" fromLane="0" toLane="0" via=":Branch_J_3_0" tl="Branch_J" linkIndex="3" dir="s" state="O"/>
    <connection from="St_2" to="Regu_out" fromLane="0" toLane="0" via=":Regu_0_0" dir="s" state="M"/>
    <connection from="St_in" to="St_1" fromLane="0" toLane="0" via=":St_0_0" dir="s" state="M"/>
    <connection from="St_out" to="-E_1" fromLane="0" toLane="0" via=":St_stop_1_0" tl="SS" linkIndex="1" dir="s" state="O"/>
    <connection from="W_1" to="N_out" fromLane="0" toLane="0" via=":W_J_4_0" tl="W_J" linkIndex="4" dir="l" state="O"/>
    <connection from="W_1" to="W_2" fromLane="0" toLane="0" via=":W_J_5_0" tl="W_J" linkIndex="5" dir="s" state="O"/>
    <connection from="W_2" to="Regu_in" fromLane="0" toLane="0" via=":Regu_stop_1_0" tl="RS" linkIndex="1" dir="s" state="O"/>
    <connection from="W_in" to="Hos_out" fromLane="0" toLane="0" via=":hos_J_4_0" dir="l" state="M"/>
    <connection from="W_in" to="W_1" fromLane="0" toLane="0" via=":hos_J_5_0" dir="s" state="M"/>

    <connection from=":Branch_J_0" to="St_2" fromLane="0" toLane="0" dir="l" state="M"/>
    <connection from=":Branch_J_1" to="Regu_2" fromLane="0" toLane="0" dir="r" state="M"/>
    <connection from=":Branch_J_2" to="Branch_out" fromLane="0" toLane="0" dir="l" state="M"/>
    <connection from=":Branch_J_3" to="St_2" fromLane="0" toLane="0" dir="s" state="M"/>
    <connection from=":Branch_J_4" to="Regu_2" fromLane="0" toLane="0" dir="s" state="M"/>
    <connection from=":Branch_J_5" to="Branch_out" fromLane="0" toLane="0" via=":Branch_J_6_0" dir="r" state="m"/>
    <connection from=":Branch_J_6" to="Branch_out" fromLane="0" toLane="0" dir="r" state="M"/>
    <connection from=":E_J_0" to="E_1" fromLane="0" toLane="0" dir="l" state="M"/>
    <connection from=":E_J_1" to="E_out" fromLane="0" toLane="0" dir="r" state="M"/>
    <connection from=":E_J_2" to="S_out" fromLane="0" toLane="0" dir="l" state="M"/>
    <connection from=":E_J_3" to="E_1" fromLane="0" toLane="0" dir="s" state="M"/>
    <connection from=":E_J_4" to="E_out" fromLane="0" toLane="0" dir="s" state="M"/>
    <connection from=":E_J_5" to="S_out" fromLane="0" toLane="0" via=":E_J_6_0" dir="r" state="m"/>
    <connection from=":E_J_6" to="S_out" fromLane="0" toLane="0" dir="r" state="M"/>
    <connection from=":Regu_0" to="Regu_out" fromLane="0" toLane="0" dir="s" state="M"/>
    <connection from=":Regu_1" to="Regu_1" fromLane="0" toLane="0" dir="s" state="M"/>
    <connection from=":Regu_stop_0" to="-W_2" fromLane="0" toLane="0" dir="s" state="M"/>
    <connection from=":Regu_stop_1" to="Regu_in" fromLane="0" toLane="0" dir="s" state="M"/>
    <connection from=":St_0" to="St_1" fromLane="0" toLane="0" dir="s" state="M"/>
    <connection from=":St_1" to="St_out" fromLane="0" toLane="0" dir="s" state="M"/>
    <connection from=":St_stop_0" to="St_in" fromLane="0" toLane="0" dir="s" state="M"/>
    <connection from=":St_stop_1" to="-E_1" fromLane="0" toLane="0" dir="s" state="M"/>
    <connection from=":W_J_0" to="-W_1" fromLane="0" toLane="0" dir="s" state="M"/>
    <connection from=":W_J_1" to="N_out" fromLane="0" toLane="0" via=":W_J_6_0" dir="r" state="m"/>
    <connection from=":W_J_6" to="N_out" fromLane="0" toLane="0" dir="r" state="M"/>
    <connection from=":W_J_2" to="W_2" fromLane="0" toLane="0" dir="l" state="M"/>
    <connection from=":W_J_3" to="-W_1" fromLane="0" toLane="0" dir="r" state="M"/>
    <connection from=":W_J_4" to="N_out" fromLane="0" toLane="0" dir="l" state="M"/>
    <connection from=":W_J_5" to="W_2" fromLane="0" toLane="0" dir="s" state="M"/>
    <connection from=":hos_J_0" to="W_out" fromLane="0" toLane="0" dir="s" state="M"/>
    <connection from=":hos_J_1" to="Hos_out" fromLane="0" toLane="0" via=":hos_J_6_0" dir="r" state="m"/>
    <connection from=":hos_J_6" to="Hos_out" fromLane="0" toLane="0" dir="r" state="M"/>
    <connection from=":hos_J_2" to="W_1" fromLane="0" toLane="0" dir="l" state="M"/>
    <connection from=":hos_J_3" to="W_out" fromLane="0" toLane="0" dir="r" state="M"/>
    <connection from=":hos_J_4" to="Hos_out" fromLane="0" toLane="0" dir="l" state="M"/>
    <connection from=":hos_J_5" to="W_1" fromLane="0" toLane="0" dir="s" state="M"/>

</net>
