<?xml version="1.0" encoding="UTF-8"?>

<!-- generated on 2023-09-19 09:13:18 by Eclipse SUMO netedit Version 1.17.0
<configuration xmlns:xsi="http://www.w3.org/2001/XMLSchema-instance" xsi:noNamespaceSchemaLocation="http://sumo.dlr.de/xsd/netconvertConfiguration.xsd">

    <input>
        <sumo-net-file value="/home/traffic/trafficsimulator/sumoSimulator/vollmont_cross/scenario_1/Tjiro.net.xml"/>
    </input>

    <output>
        <output-file value="/home/traffic/trafficsimulator/sumoSimulator/vollmont_cross/scenario_1/Tjiro.net.xml"/>
    </output>

    <processing>
        <geometry.min-radius.fix.railways value="false"/>
        <geometry.max-grade.fix value="false"/>
        <offset.disable-normalization value="true"/>
        <lefthand value="1"/>
    </processing>

    <junctions>
        <no-turnarounds value="true"/>
        <junctions.corner-detail value="5"/>
        <junctions.limit-turn-speed value="5.50"/>
        <rectangular-lane-cut value="0"/>
    </junctions>

    <pedestrian>
        <walkingareas value="0"/>
    </pedestrian>

</configuration>
-->

<net version="1.16" junctionCornerDetail="5" lefthand="true" limitTurnSpeed="5.50" xmlns:xsi="http://www.w3.org/2001/XMLSchema-instance" xsi:noNamespaceSchemaLocation="http://sumo.dlr.de/xsd/net_file.xsd">

    <location netOffset="0.00,0.00" convBoundary="-85.00,-116.00,115.00,177.00" origBoundary="-10000000000.00,-10000000000.00,10000000000.00,10000000000.00" projParameter="!"/>

    <edge id=":E_J_1_0" function="internal">
        <lane id=":E_J_1_0_0" index="0" speed="13.89" length="8.54" shape="59.00,79.40 56.54,78.90 55.00,77.80 53.46,76.70 51.00,76.20"/>
        <lane id=":E_J_1_0_1" index="1" speed="13.89" length="8.54" shape="59.00,82.60 56.54,82.10 55.00,81.00 53.46,79.90 51.00,79.40"/>
        <lane id=":E_J_1_0_2" index="2" speed="13.89" length="8.54" shape="59.00,82.60 51.00,82.60"/>
    </edge>
    <edge id=":E_J_1_3" function="internal">
        <lane id=":E_J_1_3_0" index="0" speed="13.89" length="8.00" shape="51.00,89.00 59.00,89.00"/>
        <lane id=":E_J_1_3_1" index="1" speed="13.89" length="8.00" shape="51.00,85.80 59.00,85.80"/>
    </edge>
    <edge id=":N_J_1_0" function="internal">
        <lane id=":N_J_1_0_0" index="0" speed="13.89" length="8.00" shape="13.40,120.00 13.40,128.00"/>
    </edge>
    <edge id=":N_J_1_1" function="internal">
        <lane id=":N_J_1_1_0" index="0" speed="13.89" length="8.40" shape="16.60,128.00 17.10,125.54 18.20,124.00 19.30,122.46 19.80,120.00"/>
        <lane id=":N_J_1_1_1" index="1" speed="13.89" length="8.40" shape="16.60,128.00 16.60,120.00"/>
    </edge>
    <edge id=":Regu_0" function="internal">
        <lane id=":Regu_0_0" index="0" speed="12.50" length="0.11" shape="16.60,-29.84 16.70,-29.88"/>
    </edge>
    <edge id=":Regu_1" function="internal">
        <lane id=":Regu_1_0" index="0" speed="12.50" length="0.18" shape="16.51,-29.87 16.69,-29.88"/>
    </edge>
    <edge id=":Regu_stop_0" function="internal">
        <lane id=":Regu_stop_0_0" index="0" speed="13.89" length="3.49" shape="13.40,-45.94 13.42,-42.45"/>
    </edge>
    <edge id=":Regu_stop_1" function="internal">
        <lane id=":Regu_stop_1_0" index="0" speed="13.89" length="3.40" shape="16.60,-42.54 16.60,-45.94"/>
    </edge>
    <edge id=":S_J_1_0" function="internal">
        <lane id=":S_J_1_0_0" index="0" speed="13.89" length="8.54" shape="16.04,33.14 15.24,35.63 14.12,37.13 12.92,38.62 11.88,41.06"/>
        <lane id=":S_J_1_0_1" index="1" speed="13.89" length="8.54" shape="16.04,33.14 15.71,35.50 15.54,37.13 15.28,38.74 14.66,41.03"/>
    </edge>
    <edge id=":S_J_1_2" function="internal">
        <lane id=":S_J_1_2_0" index="0" speed="13.89" length="7.91" shape="16.60,41.01 16.60,33.10"/>
    </edge>
    <edge id=":St_0" function="internal">
        <lane id=":St_0_0" index="0" speed="12.50" length="0.10" shape="16.67,29.95 16.59,29.89"/>
    </edge>
    <edge id=":St_1" function="internal">
        <lane id=":St_1_0" index="0" speed="12.50" length="0.10" shape="16.60,29.95 16.60,30.00"/>
    </edge>
    <edge id=":St_stop_0" function="internal">
        <lane id=":St_stop_0_0" index="0" speed="13.89" length="0.47" shape="10.24,49.53 10.20,50.00"/>
        <lane id=":St_stop_0_1" index="1" speed="13.89" length="0.47" shape="13.44,49.53 13.40,50.00"/>
    </edge>
    <edge id=":St_stop_2" function="internal">
        <lane id=":St_stop_2_0" index="0" speed="13.89" length="0.47" shape="16.60,50.00 16.60,49.53"/>
    </edge>
    <edge id=":Top_0" function="internal">
        <lane id=":Top_0_0" index="0" speed="7.33" length="11.73" shape="10.20,70.60 9.85,74.45 8.80,77.20 7.05,78.85 4.60,79.40"/>
        <lane id=":Top_0_1" index="1" speed="8.10" length="14.57" shape="10.20,70.60 9.85,75.85 8.80,79.60 7.05,81.85 4.60,82.60"/>
    </edge>
    <edge id=":Top_2" function="internal">
        <lane id=":Top_2_0" index="0" speed="13.89" length="27.41" shape="10.20,70.60 10.70,78.37 11.80,86.07 12.90,92.85 13.40,97.80"/>
    </edge>
    <edge id=":Top_3" function="internal">
        <lane id=":Top_3_0" index="0" speed="9.84" length="8.98" shape="13.40,70.60 14.15,77.25 15.13,79.32"/>
    </edge>
    <edge id=":Top_16" function="internal">
        <lane id=":Top_16_0" index="0" speed="9.84" length="13.01" shape="15.13,79.32 16.40,82.00 20.15,84.85 25.40,85.80"/>
    </edge>
    <edge id=":Top_4" function="internal">
        <lane id=":Top_4_0" index="0" speed="7.33" length="11.73" shape="25.40,76.20 21.55,75.85 18.80,74.80 17.15,73.05 16.60,70.60"/>
    </edge>
    <edge id=":Top_5" function="internal">
        <lane id=":Top_5_0" index="0" speed="13.89" length="21.12" shape="25.40,76.20 19.12,76.70 14.80,77.80 10.59,78.90 4.60,79.40"/>
        <lane id=":Top_5_1" index="1" speed="13.89" length="21.12" shape="25.40,79.40 19.12,79.90 14.80,81.00 10.59,82.10 4.60,82.60"/>
    </edge>
    <edge id=":Top_7" function="internal">
        <lane id=":Top_7_0" index="0" speed="9.84" length="5.50" shape="25.40,82.60 20.15,83.55 20.02,83.65"/>
    </edge>
    <edge id=":Top_17" function="internal">
        <lane id=":Top_17_0" index="0" speed="9.84" length="16.49" shape="20.02,83.65 16.40,86.40 14.15,91.15 13.40,97.80"/>
    </edge>
    <edge id=":Top_8" function="internal">
        <lane id=":Top_8_0" index="0" speed="7.33" length="11.73" shape="19.80,97.80 20.15,93.95 21.20,91.20 22.95,89.55 25.40,89.00"/>
        <lane id=":Top_8_1" index="1" speed="8.10" length="14.57" shape="19.80,97.80 20.15,92.55 21.20,88.80 22.95,86.55 25.40,85.80"/>
    </edge>
    <edge id=":Top_10" function="internal">
        <lane id=":Top_10_0" index="0" speed="13.89" length="27.41" shape="19.80,97.80 19.30,90.03 18.20,82.33 17.10,75.55 16.60,70.60"/>
    </edge>
    <edge id=":Top_11" function="internal">
        <lane id=":Top_11_0" index="0" speed="9.84" length="8.98" shape="16.60,97.80 15.85,91.15 14.87,89.08"/>
    </edge>
    <edge id=":Top_18" function="internal">
        <lane id=":Top_18_0" index="0" speed="9.84" length="13.01" shape="14.87,89.08 13.60,86.40 9.85,83.55 4.60,82.60"/>
    </edge>
    <edge id=":Top_12" function="internal">
        <lane id=":Top_12_0" index="0" speed="7.33" length="11.73" shape="4.60,92.20 8.45,92.55 11.20,93.60 12.85,95.35 13.40,97.80"/>
    </edge>
    <edge id=":Top_13" function="internal">
        <lane id=":Top_13_0" index="0" speed="13.89" length="21.12" shape="4.60,92.20 10.88,91.70 15.20,90.60 19.41,89.50 25.40,89.00"/>
        <lane id=":Top_13_1" index="1" speed="13.89" length="21.12" shape="4.60,89.00 10.88,88.50 15.20,87.40 19.41,86.30 25.40,85.80"/>
    </edge>
    <edge id=":Top_15" function="internal">
        <lane id=":Top_15_0" index="0" speed="9.84" length="5.50" shape="4.60,85.80 9.85,84.85 9.98,84.75"/>
    </edge>
    <edge id=":Top_19" function="internal">
        <lane id=":Top_19_0" index="0" speed="9.84" length="16.49" shape="9.98,84.75 13.60,82.00 15.85,77.25 16.60,70.60"/>
    </edge>
    <edge id=":W_J_1_0" function="internal">
        <lane id=":W_J_1_0_0" index="0" speed="13.89" length="8.00" shape="-21.00,79.40 -29.00,79.40"/>
        <lane id=":W_J_1_0_1" index="1" speed="13.89" length="8.00" shape="-21.00,82.60 -29.00,82.60"/>
    </edge>
    <edge id=":W_J_1_2" function="internal">
        <lane id=":W_J_1_2_0" index="0" speed="13.89" length="8.54" shape="-29.00,89.00 -26.54,89.50 -25.00,90.60 -23.46,91.70 -21.00,92.20"/>
        <lane id=":W_J_1_2_1" index="1" speed="13.89" length="8.54" shape="-29.00,85.80 -26.54,86.30 -25.00,87.40 -23.46,88.50 -21.00,89.00"/>
        <lane id=":W_J_1_2_2" index="2" speed="13.89" length="8.54" shape="-29.00,85.80 -21.00,85.80"/>
    </edge>

    <edge id="-E_1" from="E_J_1" to="E_0" priority="-1">
        <lane id="-E_1_0" index="0" speed="13.89" length="56.00" shape="59.00,89.00 115.00,89.00"/>
        <lane id="-E_1_1" index="1" speed="13.89" length="56.00" shape="59.00,85.80 115.00,85.80"/>
    </edge>
    <edge id="-E_2" from="Top" to="E_J_1" priority="-1">
        <lane id="-E_2_0" index="0" speed="13.89" length="25.60" shape="25.40,89.00 51.00,89.00"/>
        <lane id="-E_2_1" index="1" speed="13.89" length="25.60" shape="25.40,85.80 51.00,85.80"/>
    </edge>
    <edge id="-N_1" from="N_J_1" to="N_0" priority="-1">
        <lane id="-N_1_0" index="0" speed="13.89" length="49.00" shape="13.40,128.00 13.40,177.00"/>
    </edge>
    <edge id="-N_2" from="Top" to="N_J_1" priority="-1">
        <lane id="-N_2_0" index="0" speed="13.89" length="22.20" shape="13.40,97.80 13.40,120.00"/>
    </edge>
    <edge id="-S_1" from="Regu_stop" to="S_0" priority="-1">
        <lane id="-S_1_0" index="0" speed="13.89" length="70.06" shape="16.60,-45.94 16.60,-116.00"/>
    </edge>
    <edge id="-S_2" from="St_stop" to="S_J_1" priority="-1">
        <lane id="-S_2_0" index="0" speed="13.89" length="8.52" shape="16.60,49.53 16.60,41.01"/>
    </edge>
    <edge id="-S_3" from="Top" to="St_stop" priority="-1" length="27.00">
        <lane id="-S_3_0" index="0" speed="13.89" length="27.00" shape="16.60,70.60 16.60,50.00"/>
    </edge>
    <edge id="-W_1" from="W_J_1" to="W_0" priority="-1">
        <lane id="-W_1_0" index="0" speed="13.89" length="56.00" shape="-29.00,79.40 -85.00,79.40"/>
        <lane id="-W_1_1" index="1" speed="13.89" length="56.00" shape="-29.00,82.60 -85.00,82.60"/>
    </edge>
    <edge id="-W_2" from="Top" to="W_J_1" priority="-1">
        <lane id="-W_2_0" index="0" speed="13.89" length="25.60" shape="4.60,79.40 -21.00,79.40"/>
        <lane id="-W_2_1" index="1" speed="13.89" length="25.60" shape="4.60,82.60 -21.00,82.60"/>
    </edge>
    <edge id="E_1" from="E_0" to="E_J_1" priority="-1">
        <lane id="E_1_0" index="0" speed="13.89" length="56.00" shape="115.00,79.40 59.00,79.40"/>
        <lane id="E_1_1" index="1" speed="13.89" length="56.00" shape="115.00,82.60 59.00,82.60"/>
    </edge>
    <edge id="E_2" from="E_J_1" to="Top" priority="-1">
        <lane id="E_2_0" index="0" speed="13.89" length="25.60" shape="51.00,76.20 25.40,76.20"/>
        <lane id="E_2_1" index="1" speed="13.89" length="25.60" shape="51.00,79.40 25.40,79.40"/>
        <lane id="E_2_2" index="2" speed="13.89" length="25.60" shape="51.00,82.60 25.40,82.60"/>
    </edge>
    <edge id="N_1" from="N_0" to="N_J_1" priority="-1">
        <lane id="N_1_0" index="0" speed="13.89" length="49.00" shape="16.60,177.00 16.60,128.00"/>
    </edge>
    <edge id="N_2" from="N_J_1" to="Top" priority="-1">
        <lane id="N_2_0" index="0" speed="13.89" length="22.20" shape="19.80,120.00 19.80,97.80"/>
        <lane id="N_2_1" index="1" speed="13.89" length="22.20" shape="16.60,120.00 16.60,97.80"/>
    </edge>
    <edge id="Regu_in" from="Regu_stop" to="Regu" priority="-1" shape="15.00,-43.00 15.10,-30.10">
        <lane id="Regu_in_0" index="0" speed="13.89" length="13.07" customShape="1" shape="13.42,-42.45 13.57,-39.33 14.15,-36.90 14.94,-34.87 15.95,-32.63 16.51,-29.87"/>
    </edge>
    <edge id="Regu_lane" from="Regu" to="St" priority="-1">
        <lane id="Regu_lane_0" index="0" speed="11.11" length="59.83" customShape="1" shape="16.69,-29.88 16.67,29.95"/>
    </edge>
    <edge id="Regu_out" from="Regu" to="Regu_stop" priority="-1" shape="15.10,-30.10 15.00,-43.00">
        <lane id="Regu_out_0" index="0" speed="13.89" length="12.67" shape="16.70,-29.88 16.60,-42.54"/>
    </edge>
    <edge id="S_1" from="S_0" to="Regu_stop" priority="-1">
        <lane id="S_1_0" index="0" speed="13.89" length="70.06" shape="13.40,-116.00 13.40,-45.94"/>
    </edge>
    <edge id="S_2" from="S_J_1" to="St_stop" priority="-1">
        <lane id="S_2_0" index="0" speed="13.89" length="8.64" customShape="1" shape="11.88,41.06 11.00,44.29 10.45,46.94 10.24,49.53"/>
        <lane id="S_2_1" index="1" speed="13.89" length="8.64" customShape="1" shape="14.66,41.03 14.57,41.32 13.82,44.32 13.63,46.94 13.44,49.53"/>
    </edge>
    <edge id="S_3" from="St_stop" to="Top" priority="-1" length="27.00">
        <lane id="S_3_0" index="0" speed="13.89" length="27.00" shape="10.20,50.00 10.20,70.60"/>
        <lane id="S_3_1" index="1" speed="13.89" length="27.00" shape="13.40,50.00 13.40,70.60"/>
    </edge>
    <edge id="St_in" from="S_J_1" to="St" priority="-1">
        <lane id="St_in_0" index="0" speed="13.89" length="3.16" shape="16.60,33.10 16.60,29.95"/>
    </edge>
    <edge id="St_lane" from="St" to="Regu" priority="-1">
        <lane id="St_lane_0" index="0" speed="11.11" length="59.84" shape="16.60,30.00 16.60,-29.84"/>
    </edge>
    <edge id="St_out" from="St" to="S_J_1" priority="-1">
        <lane id="St_out_0" index="0" speed="13.89" length="3.30" customShape="1" shape="16.59,29.89 16.04,33.14"/>
    </edge>
    <edge id="W_1" from="W_0" to="W_J_1" priority="-1">
        <lane id="W_1_0" index="0" speed="13.89" length="56.00" shape="-85.00,89.00 -29.00,89.00"/>
        <lane id="W_1_1" index="1" speed="13.89" length="56.00" shape="-85.00,85.80 -29.00,85.80"/>
    </edge>
    <edge id="W_2" from="W_J_1" to="Top" priority="-1">
        <lane id="W_2_0" index="0" speed="13.89" length="25.60" shape="-21.00,92.20 4.60,92.20"/>
        <lane id="W_2_1" index="1" speed="13.89" length="25.60" shape="-21.00,89.00 4.60,89.00"/>
        <lane id="W_2_2" index="2" speed="13.89" length="25.60" shape="-21.00,85.80 4.60,85.80"/>
    </edge>

    <tlLogic id="J2" type="static" programID="0" offset="0">
        <phase duration="43" state="rrrrGGGgrrrrGGGg" name="Red"/>
        <phase duration="3"  state="rrrryyygrrrryyyg" name="Red"/>
        <phase duration="13" state="rrrrrrrGrrrrrrrG" name="Red"/>
        <phase duration="3"  state="rrrrrrryrrrrrrry" name="Red"/>
        <phase duration="3"  state="rrrrrrrrrrrrrrrr" name="Red"/>
        <phase duration="31" state="GGGgrrrrGGGgrrrr" name="Green"/>
        <phase duration="3"  state="yyygrrrryyygrrrr" name="Yellow"/>
        <phase duration="12" state="rrrGrrrrrrrGrrrr" name="Red"/>
        <phase duration="3"  state="rrryrrrrrrryrrrr" name="Red"/>
        <phase duration="3"  state="rrrrrrrrrrrrrrrr" name="Red"/>
    </tlLogic>
    <tlLogic id="RS" type="static" programID="0" offset="0">
        <phase duration="30" state="ro"/>
    </tlLogic>
    <tlLogic id="SS" type="static" programID="0" offset="0">
        <phase duration="82" state="OOr"/>
    </tlLogic>

    <junction id="E_0" type="dead_end" x="115.00" y="84.20" incLanes="-E_1_0 -E_1_1" intLanes="" shape="115.00,84.20 115.00,90.60 115.00,84.20"/>
    <junction id="E_J_1" type="priority" x="55.00" y="84.20" incLanes="E_1_0 E_1_1 -E_2_0 -E_2_1" intLanes=":E_J_1_0_0 :E_J_1_0_1 :E_J_1_0_2 :E_J_1_3_0 :E_J_1_3_1" shape="59.00,77.80 59.00,90.60 51.00,90.60 51.00,74.60 54.03,75.43 55.97,76.97 57.21,77.56">
        <request index="0" response="00000" foes="00000" cont="0"/>
        <request index="1" response="00000" foes="00000" cont="0"/>
        <request index="2" response="00000" foes="00000" cont="0"/>
        <request index="3" response="00000" foes="00000" cont="0"/>
        <request index="4" response="00000" foes="00000" cont="0"/>
    </junction>
    <junction id="N_0" type="dead_end" x="15.00" y="177.00" incLanes="-N_1_0" intLanes="" shape="15.00,177.00 11.80,177.00 15.00,177.00"/>
    <junction id="N_J_1" type="priority" x="15.00" y="124.00" incLanes="-N_2_0 N_1_0" intLanes=":N_J_1_0_0 :N_J_1_1_0 :N_J_1_1_1" shape="11.80,120.00 21.40,120.00 20.57,123.03 19.03,124.97 18.44,126.21 18.20,128.00 11.80,128.00">
        <request index="0" response="000" foes="000" cont="0"/>
        <request index="1" response="000" foes="000" cont="0"/>
        <request index="2" response="000" foes="000" cont="0"/>
    </junction>
    <junction id="Regu" type="priority" x="15.00" y="-30.00" incLanes="St_lane_0 Regu_in_0" intLanes=":Regu_0_0 :Regu_1_0" shape="18.20,-29.84 15.09,-29.84 18.21,-29.91" customShape="1">
        <request index="0" response="00" foes="00" cont="0"/>
        <request index="1" response="00" foes="00" cont="0"/>
    </junction>
    <junction id="Regu_stop" type="traffic_light" x="15.00" y="-43.00" incLanes="S_1_0 Regu_out_0" intLanes=":Regu_stop_0_0 :Regu_stop_1_0" shape="11.80,-45.94 18.20,-45.94 18.20,-42.62 11.82,-42.31">
        <request index="0" response="00" foes="00" cont="0"/>
        <request index="1" response="00" foes="00" cont="0"/>
    </junction>
    <junction id="S_0" type="dead_end" x="15.00" y="-116.00" incLanes="-S_1_0" intLanes="" shape="15.00,-116.00 18.20,-116.00 15.00,-116.00"/>
    <junction id="S_J_1" type="priority" x="15.00" y="37.00" incLanes="St_out_0 -S_2_0" intLanes=":S_J_1_0_0 :S_J_1_0_1 :S_J_1_2_0" shape="14.10,33.26 18.20,33.00 18.20,41.00 10.18,41.07 10.95,38.72 11.88,36.84 13.13,35.14" customShape="1">
        <request index="0" response="000" foes="000" cont="0"/>
        <request index="1" response="000" foes="000" cont="0"/>
        <request index="2" response="000" foes="000" cont="0"/>
    </junction>
    <junction id="St" type="priority" x="15.00" y="30.00" incLanes="Regu_lane_0 St_in_0" intLanes=":St_0_0 :St_1_0" shape="15.03,29.89 18.20,30.00 14.92,29.89" customShape="1">
        <request index="0" response="00" foes="00" cont="0"/>
        <request index="1" response="00" foes="00" cont="0"/>
    </junction>
    <junction id="St_stop" type="traffic_light" x="15.00" y="50.00" incLanes="S_2_0 S_2_1 -S_3_0" intLanes=":St_stop_0_0 :St_stop_0_1 :St_stop_2_0" shape="8.63,49.53 18.20,49.53 18.20,50.07 8.60,50.07">
        <request index="0" response="000" foes="000" cont="0"/>
        <request index="1" response="000" foes="000" cont="0"/>
        <request index="2" response="000" foes="000" cont="0"/>
    </junction>
    <junction id="Top" type="traffic_light" x="15.00" y="84.20" incLanes="S_3_0 S_3_1 E_2_0 E_2_1 E_2_2 N_2_0 N_2_1 W_2_0 W_2_1 W_2_2" intLanes=":Top_0_0 :Top_0_1 :Top_2_0 :Top_16_0 :Top_4_0 :Top_5_0 :Top_5_1 :Top_17_0 :Top_8_0 :Top_8_1 :Top_10_0 :Top_18_0 :Top_12_0 :Top_13_0 :Top_13_1 :Top_19_0" shape="8.60,70.60 18.20,70.60 19.00,72.82 20.00,73.60 21.40,74.16 23.20,74.49 25.40,74.60 25.40,90.60 23.18,91.40 22.40,92.40 21.84,93.80 21.51,95.60 21.40,97.80 11.80,97.80 11.00,95.58 10.00,94.80 8.60,94.24 6.80,93.91 4.60,93.80 4.60,77.80 6.82,77.00 7.60,76.00 8.16,74.60 8.49,72.80" customShape="1">
        <request index="0"  response="0000000001100000" foes="0000100001100000" cont="0"/>
        <request index="1"  response="0000000001100000" foes="0000100001100000" cont="0"/>
        <request index="2"  response="1111000011100000" foes="1111100011100000" cont="0"/>
        <request index="3"  response="1110011111100000" foes="1110011111100000" cont="1"/>
        <request index="4"  response="0000000000000000" foes="1000010000000000" cont="0"/>
        <request index="5"  response="0000100000001000" foes="1000110000001111" cont="0"/>
        <request index="6"  response="0000100000001000" foes="1000110000001111" cont="0"/>
        <request index="7"  response="0111100000001000" foes="0111110000001100" cont="1"/>
        <request index="8"  response="0110000000000000" foes="0110000000001000" cont="0"/>
        <request index="9"  response="0110000000000000" foes="0110000000001000" cont="0"/>
        <request index="10" response="1110000011110000" foes="1110000011111000" cont="0"/>
        <request index="11" response="1110000011100111" foes="1110000011100111" cont="1"/>
        <request index="12" response="0000000000000000" foes="0000000010000100" cont="0"/>
        <request index="13" response="0000100000001000" foes="0000111110001100" cont="0"/>
        <request index="14" response="0000100000001000" foes="0000111110001100" cont="0"/>
        <request index="15" response="0000100001111000" foes="0000110001111100" cont="1"/>
    </junction>
    <junction id="W_0" type="dead_end" x="-85.00" y="84.20" incLanes="-W_1_0 -W_1_1" intLanes="" shape="-85.00,84.20 -85.00,77.80 -85.00,84.20"/>
    <junction id="W_J_1" type="priority" x="-25.00" y="84.20" incLanes="-W_2_0 -W_2_1 W_1_0 W_1_1" intLanes=":W_J_1_0_0 :W_J_1_0_1 :W_J_1_2_0 :W_J_1_2_1 :W_J_1_2_2" shape="-21.00,77.80 -21.00,93.80 -24.03,92.97 -25.97,91.43 -27.21,90.84 -29.00,90.60 -29.00,77.80">
        <request index="0" response="00000" foes="00000" cont="0"/>
        <request index="1" response="00000" foes="00000" cont="0"/>
        <request index="2" response="00000" foes="00000" cont="0"/>
        <request index="3" response="00000" foes="00000" cont="0"/>
        <request index="4" response="00000" foes="00000" cont="0"/>
    </junction>

    <junction id=":Top_16_0" type="internal" x="15.13" y="79.32" incLanes=":Top_3_0 N_2_0" intLanes=":Top_5_0 :Top_5_1 :Top_7_0 :Top_8_0 :Top_8_1 :Top_10_0 :Top_13_0 :Top_13_1 :Top_15_0"/>
    <junction id=":Top_17_0" type="internal" x="20.02" y="83.65" incLanes=":Top_7_0 W_2_0 W_2_1" intLanes=":Top_2_0 :Top_3_0 :Top_10_0 :Top_11_0 :Top_12_0 :Top_13_0 :Top_13_1"/>
    <junction id=":Top_18_0" type="internal" x="14.87" y="89.08" incLanes=":Top_11_0 S_3_0" intLanes=":Top_0_0 :Top_0_1 :Top_2_0 :Top_5_0 :Top_5_1 :Top_7_0 :Top_13_0 :Top_13_1 :Top_15_0"/>
    <junction id=":Top_19_0" type="internal" x="9.98" y="84.75" incLanes=":Top_15_0 E_2_0 E_2_1" intLanes=":Top_2_0 :Top_3_0 :Top_4_0 :Top_5_0 :Top_5_1 :Top_10_0 :Top_11_0"/>

    <connection from="-E_2" to="-E_1" fromLane="0" toLane="0" via=":E_J_1_3_0" dir="s" state="M"/>
    <connection from="-E_2" to="-E_1" fromLane="1" toLane="1" via=":E_J_1_3_1" dir="s" state="M"/>
    <connection from="-N_2" to="-N_1" fromLane="0" toLane="0" via=":N_J_1_0_0" dir="s" state="M"/>
    <connection from="-S_2" to="St_in" fromLane="0" toLane="0" via=":S_J_1_2_0" dir="s" state="M"/>
    <connection from="-S_3" to="-S_2" fromLane="0" toLane="0" via=":St_stop_2_0" tl="SS" linkIndex="2" dir="s" state="O"/>
    <connection from="-W_2" to="-W_1" fromLane="0" toLane="0" via=":W_J_1_0_0" dir="s" state="M"/>
    <connection from="-W_2" to="-W_1" fromLane="1" toLane="1" via=":W_J_1_0_1" dir="s" state="M"/>
    <connection from="E_1" to="E_2" fromLane="0" toLane="0" via=":E_J_1_0_0" dir="s" state="M"/>
    <connection from="E_1" to="E_2" fromLane="1" toLane="1" via=":E_J_1_0_1" dir="s" state="M"/>
    <connection from="E_1" to="E_2" fromLane="1" toLane="2" via=":E_J_1_0_2" dir="s" state="M"/>
    <connection from="E_2" to="-S_3" fromLane="0" toLane="0" via=":Top_4_0" tl="J2" linkIndex="4" dir="l" state="O"/>
    <connection from="E_2" to="-W_2" fromLane="0" toLane="0" via=":Top_5_0" tl="J2" linkIndex="5" dir="s" state="O"/>
    <connection from="E_2" to="-W_2" fromLane="1" toLane="1" via=":Top_5_1" tl="J2" linkIndex="6" dir="s" state="O"/>
    <connection from="E_2" to="-N_2" fromLane="2" toLane="0" via=":Top_7_0" tl="J2" linkIndex="7" dir="r" state="o"/>
    <connection from="N_1" to="N_2" fromLane="0" toLane="0" via=":N_J_1_1_0" dir="s" state="M"/>
    <connection from="N_1" to="N_2" fromLane="0" toLane="1" via=":N_J_1_1_1" dir="s" state="M"/>
    <connection from="N_2" to="-E_2" fromLane="0" toLane="0" via=":Top_8_0" tl="J2" linkIndex="8" dir="l" state="o"/>
    <connection from="N_2" to="-E_2" fromLane="0" toLane="1" via=":Top_8_1" tl="J2" linkIndex="9" dir="l" state="o"/>
    <connection from="N_2" to="-S_3" fromLane="0" toLane="0" via=":Top_10_0" tl="J2" linkIndex="10" dir="s" state="o"/>
    <connection from="N_2" to="-W_2" fromLane="1" toLane="1" via=":Top_11_0" tl="J2" linkIndex="11" dir="r" state="o"/>
    <connection from="Regu_in" to="Regu_lane" fromLane="0" toLane="0" via=":Regu_1_0" dir="s" state="M"/>
    <connection from="Regu_lane" to="St_out" fromLane="0" toLane="0" via=":St_0_0" dir="s" state="M"/>
    <connection from="Regu_out" to="-S_1" fromLane="0" toLane="0" via=":Regu_stop_1_0" tl="RS" linkIndex="1" dir="s" state="O"/>
    <connection from="S_1" to="Regu_in" fromLane="0" toLane="0" via=":Regu_stop_0_0" tl="RS" linkIndex="0" dir="s" state="O"/>
    <connection from="S_2" to="S_3" fromLane="0" toLane="0" via=":St_stop_0_0" tl="SS" linkIndex="0" dir="s" state="O"/>
    <connection from="S_2" to="S_3" fromLane="1" toLane="1" via=":St_stop_0_1" tl="SS" linkIndex="1" dir="s" state="O"/>
    <connection from="S_3" to="-W_2" fromLane="0" toLane="0" via=":Top_0_0" tl="J2" linkIndex="0" dir="l" state="o"/>
    <connection from="S_3" to="-W_2" fromLane="0" toLane="1" via=":Top_0_1" tl="J2" linkIndex="1" dir="l" state="o"/>
    <connection from="S_3" to="-N_2" fromLane="0" toLane="0" via=":Top_2_0" tl="J2" linkIndex="2" dir="s" state="o"/>
    <connection from="S_3" to="-E_2" fromLane="1" toLane="1" via=":Top_3_0" tl="J2" linkIndex="3" dir="r" state="o"/>
    <connection from="St_in" to="St_lane" fromLane="0" toLane="0" via=":St_1_0" dir="s" state="M"/>
    <connection from="St_lane" to="Regu_out" fromLane="0" toLane="0" via=":Regu_0_0" dir="s" state="M"/>
    <connection from="St_out" to="S_2" fromLane="0" toLane="0" via=":S_J_1_0_0" dir="s" state="M"/>
    <connection from="St_out" to="S_2" fromLane="0" toLane="1" via=":S_J_1_0_1" dir="s" state="M"/>
    <connection from="W_1" to="W_2" fromLane="0" toLane="0" via=":W_J_1_2_0" dir="s" state="M"/>
    <connection from="W_1" to="W_2" fromLane="1" toLane="1" via=":W_J_1_2_1" dir="s" state="M"/>
    <connection from="W_1" to="W_2" fromLane="1" toLane="2" via=":W_J_1_2_2" dir="s" state="M"/>
    <connection from="W_2" to="-N_2" fromLane="0" toLane="0" via=":Top_12_0" tl="J2" linkIndex="12" dir="l" state="O"/>
    <connection from="W_2" to="-E_2" fromLane="0" toLane="0" via=":Top_13_0" tl="J2" linkIndex="13" dir="s" state="O"/>
    <connection from="W_2" to="-E_2" fromLane="1" toLane="1" via=":Top_13_1" tl="J2" linkIndex="14" dir="s" state="O"/>
    <connection from="W_2" to="-S_3" fromLane="2" toLane="0" via=":Top_15_0" tl="J2" linkIndex="15" dir="r" state="o"/>

    <connection from=":E_J_1_0" to="E_2" fromLane="0" toLane="0" dir="s" state="M"/>
    <connection from=":E_J_1_0" to="E_2" fromLane="1" toLane="1" dir="s" state="M"/>
    <connection from=":E_J_1_0" to="E_2" fromLane="2" toLane="2" dir="s" state="M"/>
    <connection from=":E_J_1_3" to="-E_1" fromLane="0" toLane="0" dir="s" state="M"/>
    <connection from=":E_J_1_3" to="-E_1" fromLane="1" toLane="1" dir="s" state="M"/>
    <connection from=":N_J_1_0" to="-N_1" fromLane="0" toLane="0" dir="s" state="M"/>
    <connection from=":N_J_1_1" to="N_2" fromLane="0" toLane="0" dir="s" state="M"/>
    <connection from=":N_J_1_1" to="N_2" fromLane="1" toLane="1" dir="s" state="M"/>
    <connection from=":Regu_0" to="Regu_out" fromLane="0" toLane="0" dir="s" state="M"/>
    <connection from=":Regu_1" to="Regu_lane" fromLane="0" toLane="0" dir="s" state="M"/>
    <connection from=":Regu_stop_0" to="Regu_in" fromLane="0" toLane="0" dir="s" state="M"/>
    <connection from=":Regu_stop_1" to="-S_1" fromLane="0" toLane="0" dir="s" state="M"/>
    <connection from=":S_J_1_0" to="S_2" fromLane="0" toLane="0" dir="s" state="M"/>
    <connection from=":S_J_1_0" to="S_2" fromLane="1" toLane="1" dir="s" state="M"/>
    <connection from=":S_J_1_2" to="St_in" fromLane="0" toLane="0" dir="s" state="M"/>
    <connection from=":St_0" to="St_out" fromLane="0" toLane="0" dir="s" state="M"/>
    <connection from=":St_1" to="St_lane" fromLane="0" toLane="0" dir="s" state="M"/>
    <connection from=":St_stop_0" to="S_3" fromLane="0" toLane="0" dir="s" state="M"/>
    <connection from=":St_stop_0" to="S_3" fromLane="1" toLane="1" dir="s" state="M"/>
    <connection from=":St_stop_2" to="-S_2" fromLane="0" toLane="0" dir="s" state="M"/>
    <connection from=":Top_0" to="-W_2" fromLane="0" toLane="0" dir="l" state="M"/>
    <connection from=":Top_0" to="-W_2" fromLane="1" toLane="1" dir="l" state="M"/>
    <connection from=":Top_2" to="-N_2" fromLane="0" toLane="0" dir="s" state="M"/>
    <connection from=":Top_3" to="-E_2" fromLane="0" toLane="1" via=":Top_16_0" dir="r" state="m"/>
    <connection from=":Top_16" to="-E_2" fromLane="0" toLane="1" dir="r" state="M"/>
    <connection from=":Top_4" to="-S_3" fromLane="0" toLane="0" dir="l" state="M"/>
    <connection from=":Top_5" to="-W_2" fromLane="0" toLane="0" dir="s" state="M"/>
    <connection from=":Top_5" to="-W_2" fromLane="1" toLane="1" dir="s" state="M"/>
    <connection from=":Top_7" to="-N_2" fromLane="0" toLane="0" via=":Top_17_0" dir="r" state="m"/>
    <connection from=":Top_17" to="-N_2" fromLane="0" toLane="0" dir="r" state="M"/>
    <connection from=":Top_8" to="-E_2" fromLane="0" toLane="0" dir="l" state="M"/>
    <connection from=":Top_8" to="-E_2" fromLane="1" toLane="1" dir="l" state="M"/>
    <connection from=":Top_10" to="-S_3" fromLane="0" toLane="0" dir="s" state="M"/>
    <connection from=":Top_11" to="-W_2" fromLane="0" toLane="1" via=":Top_18_0" dir="r" state="m"/>
    <connection from=":Top_18" to="-W_2" fromLane="0" toLane="1" dir="r" state="M"/>
    <connection from=":Top_12" to="-N_2" fromLane="0" toLane="0" dir="l" state="M"/>
    <connection from=":Top_13" to="-E_2" fromLane="0" toLane="0" dir="s" state="M"/>