<additional>    
    <inductionLoop id="straightIn" lane="St_lane_0" pos="0" length="5" file="Tjiro.out.xml"/>
    <inductionLoop id="straightOut" lane="St_lane_0" pos="-5" length="5" file="Tjiro.out.xml"/>

    <inductionLoop id="regulationIn" lane="Regu_lane_0" pos="0" length="5" file="Tjiro.out.xml"/>
    <inductionLoop id="regulationOut" lane="Regu_lane_0" pos="-5" length="5" file="Tjiro.out.xml"/>

    <laneAreaDetector id="SI" lanes="N_1_0 N_2_0 -S_3_0 -S_2_0 St_in_0" friendlyPos="false" file="Tjiro.out.xml"/>
    <laneAreaDetector id="SI_2" lanes=":N_J_1_1_1 N_2_1" friendlyPos="false" file="Tjiro.out.xml"/>
    <laneAreaDetector id="SO" lanes="St_out_0 S_2_0 S_3_0 -N_2_0 -N_1_0" friendlyPos="false" file="Tjiro.out.xml"/>
    <laneAreaDetector id="SO_2" lanes=":S_J_1_0_1 S_2_1 S_3_1" friendlyPos="false" file="Tjiro.out.xml"/>
    <laneAreaDetector id="CS" lanes="St_lane_0" friendlyPos="false" file="Tjiro.out.xml"/>

    <laneAreaDetector id="RI" lanes="S_1_0 Regu_in_0" friendlyPos="false" file="Tjiro.out.xml"/>
    <laneAreaDetector id="RO" lanes="Regu_out_0 -S_1_0" friendlyPos="false" file="Tjiro.out.xml"/>
    <laneAreaDetector id="CR" lanes="Regu_lane_0" friendlyPos="false" file="Tjiro.out.xml"/>
    
</additional>
