<?xml version="1.0" encoding="UTF-8"?>

<!-- generated on 2023-10-12 10:11:34 by Eclipse SUMO netedit Version 1.17.0
<configuration xmlns:xsi="http://www.w3.org/2001/XMLSchema-instance" xsi:noNamespaceSchemaLocation="http://sumo.dlr.de/xsd/netconvertConfiguration.xsd">

    <input>
        <sumocfg-file value="/home/traffic/SUMO_SCENARIO/kamirenjaku_no_signal/scenario_3/sumo.sumocfg"/>
        <additional-files value="/home/traffic/SUMO_SCENARIO/kamirenjaku_no_signal/scenario_3/../settings/detection.add.xml"/>
        <route-files value="/home/traffic/SUMO_SCENARIO/kamirenjaku_no_signal/scenario_3/../settings/traffic_1.rou.xml"/>
        <sumo-net-file value="/home/traffic/SUMO_SCENARIO/kamirenjaku_no_signal/scenario_3/../settings/const_80.net.xml"/>
    </input>

    <output>
        <output-file value="/home/traffic/SUMO_SCENARIO/kamirenjaku_no_signal/scenario_3/../settings/const_80.net.xml"/>
    </output>

    <processing>
        <geometry.min-radius.fix.railways value="false"/>
        <geometry.max-grade.fix value="false"/>
        <offset.disable-normalization value="true"/>
        <lefthand value="1"/>
    </processing>

    <junctions>
        <no-turnarounds value="true"/>
        <junctions.corner-detail value="5"/>
        <junctions.limit-turn-speed value="5.50"/>
        <rectangular-lane-cut value="0"/>
    </junctions>

    <pedestrian>
        <walkingareas value="0"/>
    </pedestrian>

</configuration>
-->

<net version="1.16" junctionCornerDetail="5" lefthand="true" limitTurnSpeed="5.50" xmlns:xsi="http://www.w3.org/2001/XMLSchema-instance" xsi:noNamespaceSchemaLocation="http://sumo.dlr.de/xsd/net_file.xsd">

    <location netOffset="0.00,0.00" convBoundary="-138.00,-15.80,326.20,184.20" origBoundary="-10000000000.00,-10000000000.00,10000000000.00,10000000000.00" projParameter="!"/>

    <edge id=":E_J_0" function="internal">
        <lane id=":E_J_0_0" index="0" speed="6.51" length="9.03" shape="237.60,77.00 237.25,79.45 236.20,81.20 234.45,82.25 232.00,82.60"/>
    </edge>
    <edge id=":E_J_1" function="internal">
        <lane id=":E_J_1_0" index="0" speed="8.00" length="14.19" shape="237.60,77.00 238.15,80.85 239.80,83.60 242.55,85.25 246.40,85.80"/>
    </edge>
    <edge id=":E_J_2" function="internal">
        <lane id=":E_J_2_0" index="0" speed="6.51" length="9.03" shape="246.40,82.60 243.95,82.25 242.20,81.20 241.15,79.45 240.80,77.00"/>
    </edge>
    <edge id=":E_J_3" function="internal">
        <lane id=":E_J_3_0" index="0" speed="13.89" length="14.40" shape="246.40,82.60 232.00,82.60"/>
    </edge>
    <edge id=":E_J_4" function="internal">
        <lane id=":E_J_4_0" index="0" speed="13.89" length="14.40" shape="232.00,85.80 246.40,85.80"/>
    </edge>
    <edge id=":E_J_5" function="internal">
        <lane id=":E_J_5_0" index="0" speed="8.00" length="4.07" shape="232.00,85.80 235.85,85.25 236.00,85.16"/>
    </edge>
    <edge id=":E_J_6" function="internal">
        <lane id=":E_J_6_0" index="0" speed="8.00" length="10.13" shape="236.00,85.16 238.60,83.60 240.25,80.85 240.80,77.00"/>
    </edge>
    <edge id=":Regu_0" function="internal">
        <lane id=":Regu_0_0" index="0" speed="13.89" length="0.10" shape="149.18,85.91 149.20,85.82"/>
    </edge>
    <edge id=":Regu_1" function="internal">
        <lane id=":Regu_1_0" index="0" speed="13.89" length="0.10" shape="149.20,85.80 149.20,85.80"/>
    </edge>
    <edge id=":Regu_stop_0" function="internal">
        <lane id=":Regu_stop_0_0" index="0" speed="13.89" length="0.37" shape="158.82,82.60 158.73,82.63 158.68,82.69 158.63,82.76 158.54,82.82"/>
    </edge>
    <edge id=":Regu_stop_1" function="internal">
        <lane id=":Regu_stop_1_0" index="0" speed="13.89" length="0.10" shape="158.52,85.80 158.61,85.80"/>
    </edge>
    <edge id=":St_0" function="internal">
        <lane id=":St_0_0" index="0" speed="13.89" length="0.13" shape="70.35,85.82 70.30,85.94"/>
    </edge>
    <edge id=":St_1" function="internal">
        <lane id=":St_1_0" index="0" speed="13.89" length="0.10" shape="70.30,85.80 70.35,85.80"/>
    </edge>
    <edge id=":St_stop_0" function="internal">
        <lane id=":St_stop_0_0" index="0" speed="13.89" length="0.14" shape="49.56,82.66 49.43,82.60"/>
    </edge>
    <edge id=":St_stop_1" function="internal">
        <lane id=":St_stop_1_0" index="0" speed="13.89" length="0.10" shape="49.52,85.80 49.57,85.80"/>
    </edge>
    <edge id=":W_J_0" function="internal">
        <lane id=":W_J_0_0" index="0" speed="13.89" length="14.40" shape="-30.80,82.60 -45.20,82.60"/>
    </edge>
    <edge id=":W_J_1" function="internal">
        <lane id=":W_J_1_0" index="0" speed="8.00" length="4.07" shape="-30.80,82.60 -34.65,83.15 -34.80,83.24"/>
    </edge>
    <edge id=":W_J_6" function="internal">
        <lane id=":W_J_6_0" index="0" speed="8.00" length="10.13" shape="-34.80,83.24 -37.40,84.80 -39.05,87.55 -39.60,91.40"/>
    </edge>
    <edge id=":W_J_2" function="internal">
        <lane id=":W_J_2_0" index="0" speed="6.51" length="9.03" shape="-36.40,91.40 -36.05,88.95 -35.00,87.20 -33.25,86.15 -30.80,85.80"/>
    </edge>
    <edge id=":W_J_3" function="internal">
        <lane id=":W_J_3_0" index="0" speed="8.00" length="14.19" shape="-36.40,91.40 -36.95,87.55 -38.60,84.80 -41.35,83.15 -45.20,82.60"/>
    </edge>
    <edge id=":W_J_4" function="internal">
        <lane id=":W_J_4_0" index="0" speed="6.51" length="9.03" shape="-45.20,85.80 -42.75,86.15 -41.00,87.20 -39.95,88.95 -39.60,91.40"/>
    </edge>
    <edge id=":W_J_5" function="internal">
        <lane id=":W_J_5_0" index="0" speed="13.89" length="14.40" shape="-45.20,85.80 -30.80,85.80"/>
    </edge>
    <edge id=":hos_J_0" function="internal">
        <lane id=":hos_J_0_0" index="0" speed="13.89" length="14.40" shape="-80.80,82.60 -95.20,82.60"/>
    </edge>
    <edge id=":hos_J_1" function="internal">
        <lane id=":hos_J_1_0" index="0" speed="8.00" length="4.07" shape="-80.80,82.60 -84.65,83.15 -84.80,83.24"/>
    </edge>
    <edge id=":hos_J_6" function="internal">
        <lane id=":hos_J_6_0" index="0" speed="8.00" length="10.13" shape="-84.80,83.24 -87.40,84.80 -89.05,87.55 -89.60,91.40"/>
    </edge>
    <edge id=":hos_J_2" function="internal">
        <lane id=":hos_J_2_0" index="0" speed="6.51" length="9.03" shape="-86.40,91.40 -86.05,88.95 -85.00,87.20 -83.25,86.15 -80.80,85.80"/>
    </edge>
    <edge id=":hos_J_3" function="internal">
        <lane id=":hos_J_3_0" index="0" speed="8.00" length="14.19" shape="-86.40,91.40 -86.95,87.55 -88.60,84.80 -91.35,83.15 -95.20,82.60"/>
    </edge>
    <edge id=":hos_J_4" function="internal">
        <lane id=":hos_J_4_0" index="0" speed="6.51" length="9.03" shape="-95.20,85.80 -92.75,86.15 -91.00,87.20 -89.95,88.95 -89.60,91.40"/>
    </edge>
    <edge id=":hos_J_5" function="internal">
        <lane id=":hos_J_5_0" index="0" speed="13.89" length="14.40" shape="-95.20,85.80 -80.80,85.80"/>
    </edge>

    <edge id="-E_1" from="Regu_stop" to="E_J" priority="-1">
        <lane id="-E_1_0" index="0" speed="13.89" length="73.39" shape="158.61,85.80 232.00,85.80"/>
    </edge>
    <edge id="-W_1" from="W_J" to="hos_J" priority="-1">
        <lane id="-W_1_0" index="0" speed="13.89" length="35.60" shape="-45.20,82.60 -80.80,82.60"/>
    </edge>
    <edge id="-W_2" from="St_stop" to="W_J" priority="-1">
        <lane id="-W_2_0" index="0" speed="13.89" length="80.23" shape="49.43,82.60 -30.80,82.60"/>
    </edge>
    <edge id="E_1" from="E_J" to="Regu_stop" priority="-1">
        <lane id="E_1_0" index="0" speed="13.89" length="73.18" shape="232.00,82.60 158.82,82.60"/>
    </edge>
    <edge id="E_in" from="E_0" to="E_J" priority="-1">
        <lane id="E_in_0" index="0" speed="13.89" length="79.80" shape="326.20,82.60 246.40,82.60"/>
    </edge>
    <edge id="E_out" from="E_J" to="E_0" priority="-1">
        <lane id="E_out_0" index="0" speed="13.89" length="79.80" shape="246.40,85.80 326.20,85.80"/>
    </edge>
    <edge id="Hos_in" from="Hos" to="hos_J" priority="-1">
        <lane id="Hos_in_0" index="0" speed="13.89" length="42.80" shape="-86.40,134.20 -86.40,91.40"/>
    </edge>
    <edge id="Hos_out" from="hos_J" to="Hos" priority="-1">
        <lane id="Hos_out_0" index="0" speed="13.89" length="42.80" shape="-89.60,91.40 -89.60,134.20"/>
    </edge>
    <edge id="N_in" from="N_0" to="W_J" priority="-1">
        <lane id="N_in_0" index="0" speed="13.89" length="92.80" shape="-36.40,184.20 -36.40,91.40"/>
    </edge>
    <edge id="N_out" from="W_J" to="N_0" priority="-1">
        <lane id="N_out_0" index="0" speed="13.89" length="92.80" shape="-39.60,91.40 -39.60,184.20"/>
    </edge>
    <edge id="Regu_1" from="Regu" to="St" priority="-1">
        <lane id="Regu_1_0" index="0" speed="13.89" length="78.85" customShape="1" shape="149.20,85.82 70.35,85.82"/>
    </edge>
    <edge id="Regu_in" from="Regu_stop" to="Regu" priority="-1">
        <lane id="Regu_in_0" index="0" speed="13.89" length="9.86" customShape="1" shape="158.54,82.82 149.18,85.91"/>
    </edge>
    <edge id="Regu_out" from="Regu" to="Regu_stop" priority="-1">
        <lane id="Regu_out_0" index="0" speed="13.89" length="9.32" shape="149.20,85.80 158.52,85.80"/>
    </edge>
    <edge id="S_in" from="S_0" to="E_J" priority="-1">
        <lane id="S_in_0" index="0" speed="13.89" length="92.80" shape="237.60,-15.80 237.60,77.00"/>
    </edge>
    <edge id="S_out" from="E_J" to="S_0" priority="-1">
        <lane id="S_out_0" index="0" speed="13.89" length="92.80" shape="240.80,77.00 240.80,-15.80"/>
    </edge>
    <edge id="St_1" from="St" to="Regu" priority="-1">
        <lane id="St_1_0" index="0" speed="13.89" length="78.85" shape="70.35,85.80 149.20,85.80"/>
    </edge>
    <edge id="St_in" from="St_stop" to="St" priority="-1">
        <lane id="St_in_0" index="0" speed="13.89" length="20.73" shape="49.57,85.80 70.30,85.80"/>
    </edge>
    <edge id="St_out" from="St" to="St_stop" priority="-1">
        <lane id="St_out_0" index="0" speed="13.89" length="21.00" customShape="1" shape="70.30,85.94 49.56,82.66"/>
    </edge>
    <edge id="W_1" from="hos_J" to="W_J" priority="-1">
        <lane id="W_1_0" index="0" speed="13.89" length="35.60" shape="-80.80,85.80 -45.20,85.80"/>
    </edge>
    <edge id="W_2" from="W_J" to="St_stop" priority="-1">
        <lane id="W_2_0" index="0" speed="13.89" length="80.32" shape="-30.80,85.80 49.52,85.80"/>
    </edge>
    <edge id="W_in" from="W_0" to="hos_J" priority="-1">
        <lane id="W_in_0" index="0" speed="13.89" length="42.80" shape="-138.00,85.80 -95.20,85.80"/>
    </edge>
    <edge id="W_out" from="hos_J" to="W_0" priority="-1">
        <lane id="W_out_0" index="0" speed="13.89" length="42.80" shape="-95.20,82.60 -138.00,82.60"/>
    </edge>

    <tlLogic id="E_J" type="static" programID="0" offset="0">
        <phase duration="51" state="rrGGGg"/>
        <phase duration="3"  state="rryyyy"/>
        <phase duration="3"  state="rrrrrr"/>
        <phase duration="17" state="GGrrrr"/>
        <phase duration="3"  state="yyrrrr"/>
        <phase duration="3"  state="rrrrrr"/>
    </tlLogic>
    <tlLogic id="RS" type="static" programID="0" offset="0">
        <phase duration="82" state="rG"/>
    </tlLogic>
    <tlLogic id="SS" type="static" programID="0" offset="0">
        <phase duration="82" state="Gr"/>
    </tlLogic>
    <tlLogic id="W_J" type="static" programID="0" offset="0">
        <phase duration="51" state="GgrrGG"/>
        <phase duration="3"  state="yyrryy"/>
        <phase duration="3"  state="rrrrrr"/>
        <phase duration="17" state="rrGGrr"/>
        <phase duration="3"  state="rryyrr"/>
        <phase duration="3"  state="rrrrrr"/>
    </tlLogic>

    <junction id="E_0" type="dead_end" x="326.20" y="84.20" incLanes="E_out_0" intLanes="" shape="326.20,84.20 326.20,87.40 326.20,84.20"/>
    <junction id="E_J" type="traffic_light" x="239.20" y="84.20" incLanes="S_in_0 E_in_0 -E_1_0" intLanes=":E_J_0_0 :E_J_1_0 :E_J_2_0 :E_J_3_0 :E_J_4_0 :E_J_6_0" shape="236.00,77.00 242.40,77.00 242.84,79.22 243.40,80.00 244.18,80.56 245.18,80.89 246.40,81.00 246.40,87.40 232.00,87.40 232.00,81.00 234.22,80.56 235.00,80.00 235.56,79.22 235.89,78.22">
        <request index="0" response="001000" foes="001000" cont="0"/>
        <request index="1" response="111000" foes="111000" cont="0"/>
        <request index="2" response="000000" foes="100000" cont="0"/>
        <request index="3" response="000000" foes="100011" cont="0"/>
        <request index="4" response="000000" foes="000010" cont="0"/>
        <request index="5" response="001100" foes="001110" cont="1"/>
    </junction>
    <junction id="Hos" type="dead_end" x="-88.00" y="134.20" incLanes="Hos_out_0" intLanes="" shape="-88.00,134.20 -91.20,134.20 -88.00,134.20"/>
    <junction id="N_0" type="dead_end" x="-38.00" y="184.20" incLanes="N_out_0" intLanes="" shape="-38.00,184.20 -41.20,184.20 -38.00,184.20"/>
    <junction id="Regu" type="priority" x="149.20" y="84.20" incLanes="Regu_in_0 St_1_0" intLanes=":Regu_0_0 :Regu_1_0" shape="149.20,84.22 149.20,87.40 149.20,84.22">
        <request index="0" response="00" foes="00" cont="0"/>
        <request index="1" response="00" foes="00" cont="0"/>
    </junction>
    <junction id="Regu_stop" type="traffic_light" x="159.20" y="84.20" incLanes="E_1_0 Regu_out_0" intLanes=":Regu_stop_0_0 :Regu_stop_1_0" shape="158.91,81.24 158.51,87.32 158.55,81.18" customShape="1">
        <request index="0" response="00" foes="00" cont="0"/>
        <request index="1" response="00" foes="00" cont="0"/>
    </junction>
    <junction id="S_0" type="dead_end" x="239.20" y="-15.80" incLanes="S_out_0" intLanes="" shape="239.20,-15.80 242.40,-15.80 239.20,-15.80"/>
    <junction id="St" type="priority" x="69.20" y="84.20" incLanes="Regu_1_0 St_in_0" intLanes=":St_0_0 :St_1_0" shape="70.35,84.33 70.35,87.40 70.25,84.31" customShape="1">
        <request index="0" response="00" foes="00" cont="0"/>
        <request index="1" response="00" foes="00" cont="0"/>
    </junction>
    <junction id="St_stop" type="traffic_light" x="49.20" y="84.20" incLanes="St_out_0 W_2_0" intLanes=":St_stop_0_0 :St_stop_1_0" shape="49.56,80.73 49.57,87.40 49.37,80.43" customShape="1">
        <request index="0" response="00" foes="00" cont="0"/>
        <request index="1" response="00" foes="00" cont="0"/>
    </junction>
    <junction id="W_0" type="dead_end" x="-138.00" y="84.20" incLanes="W_out_0" intLanes="" shape="-138.00,84.20 -138.00,81.00 -138.00,84.20"/>
    <junction id="W_J" type="traffic_light" x="-38.00" y="84.20" incLanes="-W_2_0 N_in_0 W_1_0" intLanes=":W_J_0_0 :W_J_6_0 :W_J_2_0 :W_J_3_0 :W_J_4_0 :W_J_5_0" shape="-30.80,81.00 -30.80,87.40 -33.02,87.84 -33.80,88.40 -34.36,89.18 -34.69,90.18 -34.80,91.40 -41.20,91.40 -41.64,89.18 -42.20,88.40 -42.98,87.84 -43.98,87.51 -45.20,87.40 -45.20,81.00">
        <request index="0" response="000000" foes="001000" cont="0"/>
        <request index="1" response="110000" foes="111000" cont="1"/>
        <request index="2" response="100000" foes="100000" cont="0"/>
        <request index="3" response="100011" foes="100011" cont="0"/>
        <request index="4" response="000000" foes="000010" cont="0"/>
        <request index="5" response="000000" foes="001110" cont="0"/>
    </junction>
    <junction id="hos_J" type="priority" x="-88.00" y="84.20" incLanes="-W_1_0 Hos_in_0 W_in_0" intLanes=":hos_J_0_0 :hos_J_6_0 :hos_J_2_0 :hos_J_3_0 :hos_J_4_0 :hos_J_5_0" shape="-80.80,81.00 -80.80,87.40 -83.02,87.84 -83.80,88.40 -84.36,89.18 -84.69,90.18 -84.80,91.40 -91.20,91.40 -91.64,89.18 -92.20,88.40 -92.98,87.84 -93.98,87.51 -95.20,87.40 -95.20,81.00">
        <request index="0" response="000000" foes="001000" cont="0"/>
        <request index="1" response="110000" foes="111000" cont="1"/>
        <request index="2" response="100000" foes="100000" cont="0"/>
        <request index="3" response="100011" foes="100011" cont="0"/>
        <request index="4" response="000000" foes="000010" cont="0"/>
        <request index="5" response="000000" foes="001110" cont="0"/>
    </junction>

    <junction id=":E_J_6_0" type="internal" x="236.00" y="85.16" incLanes=":E_J_5_0 E_in_0" intLanes=":E_J_1_0 :E_J_2_0 :E_J_3_0"/>
    <junction id=":W_J_6_0" type="internal" x="-34.80" y="83.24" incLanes=":W_J_1_0 W_1_0" intLanes=":W_J_3_0 :W_J_4_0 :W_J_5_0"/>
    <junction id=":hos_J_6_0" type="internal" x="-84.80" y="83.24" incLanes=":hos_J_1_0 W_in_0" intLanes=":hos_J_3_0 :hos_J_4_0 :hos_J_5_0"/>

    <connection from="-E_1" to="E_out" fromLane="0" toLane="0" via=":E_J_4_0" tl="E_J" linkIndex="4" dir="s" state="O"/>
    <connection from="-E_1" to="S_out" fromLane="0" toLane="0" via=":E_J_5_0" tl="E_J" linkIndex="5" dir="r" state="o"/>
    <connection from="-W_1" to="W_out" fromLane="0" toLane="0" via=":hos_J_0_0" dir="s" state="M"/>
    <connection from="-W_1" to="Hos_out" fromLane="0" toLane="0" via=":hos_J_1_0" dir="r" state="m"/>
    <connection from="-W_2" to="-W_1" fromLane="0" toLane="0" via=":W_J_0_0" tl="W_J" linkIndex="0" dir="s" state="O"/>
    <connection from="-W_2" to="N_out" fromLane="0" toLane="0" via=":W_J_1_0" tl="W_J" linkIndex="1" dir="r" state="o"/>
    <connection from="E_1" to="Regu_in" fromLane="0" toLane="0" via=":Regu_stop_0_0" tl="RS" linkIndex="0" dir="s" state="O"/>
    <connection from="E_in" to="S_out" fromLane="0" toLane="0" via=":E_J_2_0" tl="E_J" linkIndex="2" dir="l" state="O"/>
    <connection from="E_in" to="E_1" fromLane="0" toLane="0" via=":E_J_3_0" tl="E_J" linkIndex="3" dir="s" state="O"/>
    <connection from="Hos_in" to="W_1" fromLane="0" toLane="0" via=":hos_J_2_0" dir="l" state="m"/>
    <connection from="Hos_in" to="W_out" fromLane="0" toLane="0" via=":hos_J_3_0" dir="r" state="m"/>
    <connection from="N_in" to="W_2" fromLane="0" toLane="0" via=":W_J_2_0" tl="W_J" linkIndex="2" dir="l" state="o"/>
    <connection from="N_in" to="-W_1" fromLane="0" toLane="0" via=":W_J_3_0" tl="W_J" linkIndex="3" dir="r" state="o"/>
    <connection from="Regu_1" to="St_out" fromLane="0" toLane="0" via=":St_0_0" dir="s" state="M"/>
    <connection from="Regu_in" to="Regu_1" fromLane="0" toLane="0" via=":Regu_0_0" dir="s" state="M"/>
    <connection from="Regu_out" to="-E_1" fromLane="0" toLane="0" via=":Regu_stop_1_0" tl="RS" linkIndex="1" dir="s" state="O"/>
    <connection from="S_in" to="E_1" fromLane="0" toLane="0" via=":E_J_0_0" tl="E_J" linkIndex="0" dir="l" state="o"/>
    <connection from="S_in" to="E_out" fromLane="0" toLane="0" via=":E_J_1_0" tl="E_J" linkIndex="1" dir="r" state="o"/>
    <connection from="St_1" to="Regu_out" fromLane="0" toLane="0" via=":Regu_1_0" dir="s" state="M"/>
    <connection from="St_in" to="St_1" fromLane="0" toLane="0" via=":St_1_0" dir="s" state="M"/>
    <connection from="St_out" to="-W_2" fromLane="0" toLane="0" via=":St_stop_0_0" tl="SS" linkIndex="0" dir="s" state="O"/>
    <connection from="W_1" to="N_out" fromLane="0" toLane="0" via=":W_J_4_0" tl="W_J" linkIndex="4" dir="l" state="O"/>
    <connection from="W_1" to="W_2" fromLane="0" toLane="0" via=":W_J_5_0" tl="W_J" linkIndex="5" dir="s" state="O"/>
    <connection from="W_2" to="St_in" fromLane="0" toLane="0" via=":St_stop_1_0" tl="SS" linkIndex="1" dir="s" state="O"/>
    <connection from="W_in" to="Hos_out" fromLane="0" toLane="0" via=":hos_J_4_0" dir="l" state="M"/>
    <connection from="W_in" to="W_1" fromLane="0" toLane="0" via=":hos_J_5_0" dir="s" state="M"/>

    <connection from=":E_J_0" to="E_1" fromLane="0" toLane="0" dir="l" state="M"/>
    <connection from=":E_J_1" to="E_out" fromLane="0" toLane="0" dir="r" state="M"/>
    <connection from=":E_J_2" to="S_out" fromLane="0" toLane="0" dir="l" state="M"/>
    <connection from=":E_J_3" to="E_1" fromLane="0" toLane="0" dir="s" state="M"/>
    <connection from=":E_J_4" to="E_out" fromLane="0" toLane="0" dir="s" state="M"/>
    <connection from=":E_J_5" to="S_out" fromLane="0" toLane="0" via=":E_J_6_0" dir="r" state="m"/>
    <connection from=":E_J_6" to="S_out" fromLane="0" toLane="0" dir="r" state="M"/>
    <connection from=":Regu_0" to="Regu_1" fromLane="0" toLane="0" dir="s" state="M"/>
    <connection from=":Regu_1" to="Regu_out" fromLane="0" toLane="0" dir="s" state="M"/>
    <connection from=":Regu_stop_0" to="Regu_in" fromLane="0" toLane="0" dir="s" state="M"/>
    <connection from=":Regu_stop_1" to="-E_1" fromLane="0" toLane="0" dir="s" state="M"/>
    <connection from=":St_0" to="St_out" fromLane="0" toLane="0" dir="s" state="M"/>
    <connection from=":St_1" to="St_1" fromLane="0" toLane="0" dir="s" state="M"/>
    <connection from=":St_stop_0" to="-W_2" fromLane="0" toLane="0" dir="s" state="M"/>
    <connection from=":St_stop_1" to="St_in" fromLane="0" toLane="0" dir="s" state="M"/>
    <connection from=":W_J_0" to="-W_1" fromLane="0" toLane="0" dir="s" state="M"/>
    <connection from=":W_J_1" to="N_out" fromLane="0" toLane="0" via=":W_J_6_0" dir="r" state="m"/>
    <connection from=":W_J_6" to="N_out" fromLane="0" toLane="0" dir="r" state="M"/>
    <connection from=":W_J_2" to="W_2" fromLane="0" toLane="0" dir="l" state="M"/>
    <connection from=":W_J_3" to="-W_1" fromLane="0" toLane="0" dir="r" state="M"/>
    <connection from=":W_J_4" to="N_out" fromLane="0" toLane="0" dir="l" state="M"/>
    <connection from=":W_J_5" to="W_2" fromLane="0" toLane="0" dir="s" state="M"/>
    <connection from=":hos_J_0" to="W_out" fromLane="0" toLane="0" dir="s" state="M"/>
    <connection from=":hos_J_1" to="Hos_out" fromLane="0" toLane="0" via=":hos_J_6_0" dir="r" state="m"/>
    <connection from=":hos_J_6" to="Hos_out" fromLane="0" toLane="0" dir="r" state="M"/>
    <connection from=":hos_J_2" to="W_1" fromLane="0" toLane="0" dir="l" state="M"/>
    <connection from=":hos_J_3" to="W_out" fromLane="0" toLane="0" dir="r" state="M"/>
    <connection from=":hos_J_4" to="Hos_out" fromLane="0" toLane="0" dir="l" state="M"/>
    <connection from=":hos_J_5" to="W_1" fromLane="0" toLane="0" dir="s" state="M"/>

</net>
