<?xml version="1.0" encoding="UTF-8"?>

<routes xmlns:xsi="http://www.w3.org/2001/XMLSchema-instance" xsi:noNamespaceSchemaLocation="http://sumo.dlr.de/xsd/routes_file.xsd">
    <vType id="normal" accel="3" decel="6.5" sigma="0" length="5" minGap="2.5" vClass="passenger" maxSpeed="14"/>
    <vType id="bus" accel="3" decel="5.5" sigma="0" length="11" minGap="3" vClass="bus" maxSpeed="11" color="1,0,0"/> <!--赤色-->
    <vType id="large" accel="3" decel="6.5" sigma="0" length="12" minGap="2.5" vClass="truck" maxSpeed="14" color="0,0,1"/> <!--青色-->
    
    <flow id="EtoW_normal" type="normal" from="E_in" to="W_out" begin="0" end="3600" probability="0.08"/>
    <flow id="EtoW_bus" type="bus" from="E_in" to="W_out" begin="0" end="3600" probability="0.0005"/>
    <flow id="EtoW_large" type="large" from="E_in" to="W_out" begin="0" end="3600" probability="0.0036"/>

    <!-- <flow id="EtoB_normal" type="normal" from="E_in" to="Branch_out" begin="0" end="3600" probability="0.0014"/> -->
    <!-- <flow id="EtoB_bus" type="bus" from="E_in" to="Branch_out" begin="0" end="3600" probability="0.001"/> -->
    <!-- <flow id="EtoB_large" type="large" from="E_in" to="Branch_out" begin="0" end="3600" probability="0.001"/> -->

    <flow id="EtoH_normal" type="normal" from="E_in" to="Hos_out" begin="0" end="3600" probability="0.0028"/>
    <!-- <flow id="EtoH_bus" type="bus" from="E_in" to="Hos_out" begin="0" end="3600" probability="0.001"/> -->
    <!-- <flow id="EtoH_large" type="large" from="E_in" to="Hos_out" begin="0" end="3600" probability="0.001"/> -->

    <flow id="WtoE_normal" type="normal" from="W_in" to="E_out" begin="0" end="3600" probability="0.08"/>
    <flow id="WtoE_bus" type="bus" from="W_in" to="E_out" begin="0" end="3600" probability="0.0005"/>
    <flow id="WtoE_large" type="large" from="W_in" to="E_out" begin="0" end="3600" probability="0.003"/>

    <!-- <flow id="WtoB_normal" type="normal" from="W_in" to="Branch_out" begin="0" end="3600" probability="0.0014"/> -->
    <!-- <flow id="WtoB_bus" type="bus" from="W_in" to="Branch_out" begin="0" end="3600" probability="0.0025"/> -->
    <!-- <flow id="WtoB_large" type="large" from="W_in" to="Branch_out" begin="0" end="3600" probability="0.0025"/> -->

    <flow id="WtoH_normal" type="normal" from="W_in" to="Hos_out" begin="0" end="3600" probability="0.0028"/>
    <!-- <flow id="WtoH_bus" type="bus" from="W_in" to="Hos_out" begin="0" end="3600" probability="0.0025"/> -->
    <!-- <flow id="WtoH_large" type="large" from="W_in" to="Hos_out" begin="0" end="3600" probability="0.0025"/> -->

    <!-- <flow id="BtoE_normal" type="normal" from="Branch_in" to="E_out" begin="0" end="3600" probability="0.0014"/> -->
    <!-- <flow id="BtoE_bus" type="bus" from="Branch_in" to="E_out" begin="0" end="3600" probability="0.00025"/> -->
    <!-- <flow id="BtoE_large" type="large" from="Branch_in" to="E_out" begin="0" end="3600" probability="0.00025"/> -->

    <!-- <flow id="BtoW_normal" type="normal" from="Branch_in" to="W_out" begin="0" end="3600" probability="0.0014"/> -->
    <!-- <flow id="BtoW_bus" type="bus" from="Branch_in" to="W_out" begin="0" end="3600" probability="0.0005"/> -->
    <!-- <flow id="BtoW_large" type="large" from="Branch_in" to="W_out" begin="0" end="3600" probability="0.0005"/> -->

    <!-- <flow id="BtoH_normal" type="normal" from="Branch_in" to="Hos_out" begin="0" end="3600" probability="0.02"/> -->
    <!-- <flow id="BtoH_bus" type="bus" from="Branch_in" to="Hos_out" begin="0" end="3600" probability="0.001"/> -->
    <!-- <flow id="BtoH_large" type="large" from="Branch_in" to="Hos_out" begin="0" end="3600" probability="0.001"/> -->

    <flow id="HtoE_normal" type="normal" from="Hos_in" to="E_out" begin="0" end="3600" probability="0.0028"/>
    <!-- <flow id="HtoE_bus" type="bus" from="Hos_in" to="E_out" begin="0" end="3600" probability="0.00025"/> -->
    <!-- <flow id="HtoE_large" type="large" from="Hos_in" to="E_out" begin="0" end="3600" probability="0.00025"/> -->

    <flow id="HtoW_normal" type="normal" from="Hos_in" to="W_out" begin="0" end="3600" probability="0.0028"/>
    <!-- <flow id="HtoW_bus" type="bus" from="Hos_in" to="W_out" begin="0" end="3600" probability="0.0005"/> -->
    <!-- <flow id="HtoW_large" type="large" from="Hos_in" to="W_out" begin="0" end="3600" probability="0.0005"/> -->

    <!-- <flow id="HtoB_normal" type="normal" from="Hos_in" to="Branch_out" begin="0" end="3600" probability="0.02"/> -->
    <!-- <flow id="HtoB_bus" type="bus" from="Hos_in" to="Branch_out" begin="0" end="3600" probability="0.001"/> -->
    <!-- <flow id="HtoB_large" type="large" from="Hos_in" to="Branch_out" begin="0" end="3600" probability="0.001"/> -->

<!-- 
    <flow id="TE1" type="normal" from="E_in" to="TW" begin="0" end="3600" number="111"/>
    <flow id="TE2" type="bus" from="E_in" to="TW" begin="0" end="3600" number="3"/>
    <flow id="TE3" type="large" from="E_in" to="TW" begin="0" end="3600" number="9"/>

    <flow id="TE4" type="normal" from="E_in" to="B" begin="0" end="3600" number="74"/>
    <flow id="TE5" type="bus" from="E_in" to="B" begin="0" end="3600" number="2"/>
    <flow id="TE6" type="large" from="E_in" to="B" begin="0" end="3600" number="6"/>

    <flow id="TW1" type="normal" from="-TW" to="TE" begin="0" end="3600" number="175"/>
    <flow id="TW2" type="bus" from="-TW" to="TE" begin="0" end="3600" number="4"/>
    <flow id="TW3" type="large" from="-TW" to="TE" begin="0" end="3600" number="9"/>

    <flow id="TW4" type="normal" from="-TW" to="B" begin="0" end="3600" number="75"/>
    <flow id="TW5" type="bus" from="-TW" to="B" begin="0" end="3600" number="2"/>
    <flow id="TW6" type="large" from="-TW" to="B" begin="0" end="3600" number="4"/>

    <flow id="B1" type="normal" from="-B" to="TE" begin="0" end="3600" number="62"/>
    <flow id="B2" type="bus" from="-B" to="TE" begin="0" end="3600" number="2"/>
    <flow id="B3" type="large" from="-B" to="TE" begin="0" end="3600" number="2"/>

    <flow id="B4" type="normal" from="-B" to="TW" begin="0" end="3600" number="64"/>
    <flow id="B5" type="bus" from="-B" to="TW" begin="0" end="3600" number="2"/>
    <flow id="B6" type="large" from="-B" to="TW" begin="0" end="3600" number="2"/> -->

</routes>
