<?xml version="1.0" encoding="UTF-8"?>

<!-- generated on 2023-06-07 10:58:09 by Eclipse SUMO GUI Version 1.17.0
-->

<configuration xmlns:xsi="http://www.w3.org/2001/XMLSchema-instance" xsi:noNamespaceSchemaLocation="http://sumo.dlr.de/xsd/sumoConfiguration.xsd">

    <input>
        <net-file value="../settings/const_60.net.xml"/>
        <route-files value="../settings/traffic_normal.rou.xml"/>
        <additional-files value="../settings/detection.add.xml"/>
    </input>

</configuration>
